
     RDKit          3D

222226  0  0  0  0  0  0  0  0999 V2000
  -22.0061  -16.5930   10.5469 C   0  0  0  0  0  0  0  0  0  0  0  0
  -21.8680  -16.6400   12.1000 C   0  0  0  0  0  0  0  0  0  0  0  0
  -20.6925  -16.7604   13.0663 C   0  0  2  0  0  0  0  0  0  0  0  0
  -19.4732  -17.0610   11.9904 C   0  0  0  0  0  0  0  0  0  0  0  0
  -20.4324  -17.0795   14.5308 C   0  0  2  0  0  0  0  0  0  0  0  0
  -20.2719  -17.8456   15.6768 N   0  0  0  0  0  0  0  0  0  0  0  0
  -19.8154  -19.0786   16.2065 C   0  0  0  0  0  0  0  0  0  0  0  0
  -19.4637  -20.2402   15.5800 O   0  0  0  0  0  0  0  0  0  0  0  0
  -19.5878  -19.6975   17.6974 C   0  0  0  0  0  0  0  0  0  0  0  0
  -19.9368  -19.2217   18.8780 N   0  0  0  0  0  0  0  0  0  0  0  0
  -18.8991  -19.0709   19.8212 C   0  0  0  0  0  0  0  0  0  0  0  0
  -17.6894  -19.1233   19.5584 O   0  0  0  0  0  0  0  0  0  0  0  0
  -19.3883  -18.6394   20.9590 C   0  0  2  0  0  0  0  0  0  0  0  0
  -19.0157  -17.6254   21.9266 C   0  0  0  0  0  0  0  0  0  0  0  0
  -18.8416  -16.3100   21.8368 C   0  0  0  0  0  0  0  0  0  0  0  0
  -19.0957  -15.5355   22.8984 O   0  0  0  0  0  0  0  0  0  0  0  0
  -18.3740  -15.6662   20.8821 O   0  0  0  0  0  0  0  0  0  0  0  0
  -20.2031  -19.8651   21.5203 N   0  0  0  0  0  0  0  0  0  0  0  0
  -20.5597  -21.0851   20.9814 C   0  0  0  0  0  0  0  0  0  0  0  0
  -20.2249  -20.9784   19.7580 O   0  0  0  0  0  0  0  0  0  0  0  0
  -21.2615  -22.4240   21.6498 C   0  0  1  0  0  0  0  0  0  0  0  0
  -22.6112  -22.1355   21.6995 C   0  0  0  0  0  0  0  0  0  0  0  0
  -23.5222  -22.8034   22.1123 O   0  0  0  0  0  0  0  0  0  0  0  0
  -20.3767  -23.4198   21.2995 N   0  0  0  0  0  0  0  0  0  0  0  0
  -20.0419  -24.4347   22.2881 C   0  0  0  0  0  0  0  0  0  0  0  0
  -20.5502  -24.6205   23.3686 O   0  0  0  0  0  0  0  0  0  0  0  0
  -19.0596  -25.6112   21.9061 C   0  0  2  0  0  0  0  0  0  0  0  0
  -19.4868  -26.7089   21.2830 N   0  0  0  0  0  0  0  0  0  0  0  0
  -17.7706  -25.6762   22.5700 C   0  0  0  0  0  0  0  0  0  0  0  0
  -16.5016  -25.2841   21.9604 C   0  0  0  0  0  0  0  0  0  0  0  0
  -15.6477  -25.9731   20.9706 C   0  0  0  0  0  0  0  0  0  0  0  0
  -14.8243  -25.1729   20.6505 N   0  0  0  0  0  0  0  0  0  0  0  0
  -15.1361  -23.9954   21.4073 C   0  0  0  0  0  0  0  0  0  0  0  0
  -16.1331  -24.1936   22.1251 N   0  0  0  0  0  0  0  0  0  0  0  0
  -20.3995  -15.5768   15.1929 C   0  0  0  0  0  0  0  0  0  0  0  0
  -21.0395  -14.4081   14.8140 O   0  0  0  0  0  0  0  0  0  0  0  0
  -19.6883  -15.2303   16.2373 N   0  0  0  0  0  0  0  0  0  0  0  0
  -19.6083  -14.1137   16.9673 C   0  0  2  0  0  0  0  0  0  0  0  0
  -19.6414  -12.7222   17.4142 C   0  0  0  0  0  0  0  0  0  0  0  0
  -20.4297  -12.2126   18.6472 C   0  0  0  0  0  0  0  0  0  0  0  0
  -19.9325  -12.4428   19.9404 C   0  0  0  0  0  0  0  0  0  0  0  0
  -20.7075  -12.0782   21.0230 C   0  0  0  0  0  0  0  0  0  0  0  0
  -21.9024  -11.4983   20.8209 C   0  0  0  0  0  0  0  0  0  0  0  0
  -22.4866  -11.3409   19.6420 C   0  0  0  0  0  0  0  0  0  0  0  0
  -21.7771  -11.7124   18.4778 C   0  0  0  0  0  0  0  0  0  0  0  0
  -18.7749  -14.8062   17.8779 C   0  0  0  0  0  0  0  0  0  0  0  0
  -19.3390  -15.3844   18.7609 O   0  0  0  0  0  0  0  0  0  0  0  0
  -17.3973  -14.6353   17.6456 N   0  0  0  0  0  0  0  0  0  0  0  0
  -16.5738  -15.3690   18.3988 C   0  0  1  0  0  0  0  0  0  0  0  0
  -16.3672  -16.0070   17.2060 C   0  0  0  0  0  0  0  0  0  0  0  0
  -16.4231  -17.1843   17.1207 O   0  0  0  0  0  0  0  0  0  0  0  0
  -16.1291  -15.2366   16.1572 N   0  0  0  0  0  0  0  0  0  0  0  0
  -16.2097  -15.7522   14.9781 C   0  0  2  0  0  0  0  0  0  0  0  0
  -15.2352  -15.6216   13.9415 C   0  0  0  0  0  0  0  0  0  0  0  0
  -14.7916  -14.4961   13.3895 C   0  0  0  0  0  0  0  0  0  0  0  0
  -13.8788  -14.8090   12.4142 O   0  0  0  0  0  0  0  0  0  0  0  0
  -15.2371  -13.3282   13.3607 O   0  0  0  0  0  0  0  0  0  0  0  0
  -17.4208  -16.3764   14.9924 C   0  0  0  0  0  0  0  0  0  0  0  0
  -17.3533  -17.5513   15.0574 O   0  0  0  0  0  0  0  0  0  0  0  0
  -18.6772  -15.6283   14.8833 N   0  0  0  0  0  0  0  0  0  0  0  0
  -19.9733  -16.1336   14.9124 C   0  0  1  0  0  0  0  0  0  0  0  0
  -20.6875  -16.5531   15.9370 C   0  0  0  0  0  0  0  0  0  0  0  0
  -21.4649  -17.0562   16.5753 O   0  0  0  0  0  0  0  0  0  0  0  0
  -20.8149  -15.7123   13.7249 C   0  0  0  0  0  0  0  0  0  0  0  0
  -21.3232  -14.5974   13.9064 O   0  0  0  0  0  0  0  0  0  0  0  0
  -21.1639  -16.6029   12.5540 N   0  0  0  0  0  0  0  0  0  0  0  0
  -21.8036  -16.2475   11.4312 C   0  0  2  0  0  0  0  0  0  0  0  0
  -22.9912  -16.5371   10.6272 C   0  0  0  0  0  0  0  0  0  0  0  0
  -23.9902  -17.1157    9.9069 C   0  0  0  0  0  0  0  0  0  0  0  0
  -23.9092  -18.4832    9.2919 C   0  0  0  0  0  0  0  0  0  0  0  0
  -24.9382  -18.9736    8.3298 C   0  0  0  0  0  0  0  0  0  0  0  0
  -26.0103  -18.1275    7.8477 C   0  0  0  0  0  0  0  0  0  0  0  0
  -26.8622  -18.5138    6.7656 O   0  0  0  0  0  0  0  0  0  0  0  0
  -26.1140  -16.8164    8.3400 C   0  0  0  0  0  0  0  0  0  0  0  0
  -25.1765  -16.3011    9.3341 C   0  0  0  0  0  0  0  0  0  0  0  0
  -20.5466  -16.0867   10.6613 C   0  0  0  0  0  0  0  0  0  0  0  0
  -20.1829  -15.0272   10.2851 O   0  0  0  0  0  0  0  0  0  0  0  0
  -19.7910  -17.1965   10.3743 N   0  0  0  0  0  0  0  0  0  0  0  0
  -18.4978  -17.1969    9.8872 C   0  0  2  0  0  0  0  0  0  0  0  0
  -17.7091  -18.0126    9.1107 C   0  0  0  0  0  0  0  0  0  0  0  0
  -17.4555  -17.6036    7.7616 O   0  0  0  0  0  0  0  0  0  0  0  0
  -18.0553  -16.3463   10.5295 C   0  0  0  0  0  0  0  0  0  0  0  0
  -17.3874  -16.6508   11.4883 O   0  0  0  0  0  0  0  0  0  0  0  0
  -18.4140  -15.2470    9.8412 N   0  0  0  0  0  0  0  0  0  0  0  0
  -18.6083  -14.4826   10.0321 C   0  0  2  0  0  0  0  0  0  0  0  0
  -18.6749  -13.1960   10.6988 C   0  0  0  0  0  0  0  0  0  0  0  0
  -17.2673  -12.4919   11.2979 C   0  0  0  0  0  0  0  0  0  0  0  0
  -17.2926  -10.9748   11.7499 C   0  0  0  0  0  0  0  0  0  0  0  0
  -17.7962  -10.1145   12.0985 N   0  0  0  0  0  0  0  0  0  0  0  0
  -18.5064   -8.8588   12.0947 C   0  0  0  0  0  0  0  0  0  0  0  0
  -19.0269   -8.4335   13.1831 N   0  0  0  0  0  0  0  0  0  0  0  0
  -18.7541   -8.2145   11.0073 N   0  0  0  0  0  0  0  0  0  0  0  0
  -19.3352  -15.0512    9.0697 C   0  0  0  0  0  0  0  0  0  0  0  0
  -20.5107  -15.2169    9.2355 O   0  0  0  0  0  0  0  0  0  0  0  0
  -18.5888  -15.3746    7.9436 N   0  0  0  0  0  0  0  0  0  0  0  0
  -19.0040  -16.0130    6.9307 C   0  0  2  0  0  0  0  0  0  0  0  0
  -17.9845  -15.9509    5.8823 C   0  0  0  0  0  0  0  0  0  0  0  0
  -16.6370  -15.5012    6.1687 C   0  0  0  0  0  0  0  0  0  0  0  0
  -15.6392  -15.9908    5.2053 C   0  0  0  0  0  0  0  0  0  0  0  0
  -14.3084  -15.6500    5.2043 C   0  0  0  0  0  0  0  0  0  0  0  0
  -13.8140  -14.8257    6.2187 C   0  0  0  0  0  0  0  0  0  0  0  0
  -12.4066  -14.4835    6.2944 O   0  0  0  0  0  0  0  0  0  0  0  0
  -14.6716  -14.3810    7.1595 C   0  0  0  0  0  0  0  0  0  0  0  0
  -16.1330  -14.6228    7.2066 C   0  0  0  0  0  0  0  0  0  0  0  0
  -20.1979  -16.7171    6.6314 C   0  0  0  0  0  0  0  0  0  0  0  0
  -20.8535  -16.6268    5.5926 O   0  0  0  0  0  0  0  0  0  0  0  0
  -20.7710  -17.5427    7.4450 N   0  0  0  0  0  0  0  0  0  0  0  0
  -22.0354  -18.2364    7.4172 C   0  0  2  0  0  0  0  0  0  0  0  0
  -22.3147  -19.2534    8.3990 C   0  0  0  0  0  0  0  0  0  0  0  0
  -22.2973  -18.9060    9.8560 C   0  0  0  0  0  0  0  0  0  0  0  0
  -22.2342  -20.0179   10.9736 C   0  0  0  0  0  0  0  0  0  0  0  0
  -22.0404  -19.4074   12.1436 N   0  0  0  0  0  0  0  0  0  0  0  0
  -20.8898  -19.4818   13.0378 C   0  0  0  0  0  0  0  0  0  0  0  0
  -19.7757  -20.0065   12.7160 N   0  0  0  0  0  0  0  0  0  0  0  0
  -21.0160  -18.7974   14.1737 N   0  0  0  0  0  0  0  0  0  0  0  0
  -22.4162  -17.8285    6.3334 C   0  0  0  0  0  0  0  0  0  0  0  0
  -23.4202  -18.1317    5.7856 O   0  0  0  0  0  0  0  0  0  0  0  0
  -21.7247  -17.0949    6.1157 N   0  0  0  0  0  0  0  0  0  0  0  0
  -21.9268  -16.5029    5.0024 C   0  0  1  0  0  0  0  0  0  0  0  0
  -21.1162  -15.4109    5.0147 C   0  0  0  0  0  0  0  0  0  0  0  0
  -21.6187  -14.3465    6.1695 C   0  0  0  0  0  0  0  0  0  0  0  0
  -20.5791  -13.0927    6.4347 C   0  0  0  0  0  0  0  0  0  0  0  0
  -20.9578  -12.0007    7.1410 C   0  0  0  0  0  0  0  0  0  0  0  0
  -20.5825  -10.9746    7.9640 N   0  0  0  0  0  0  0  0  0  0  0  0
  -22.0143  -17.4264    3.9829 C   0  0  0  0  0  0  0  0  0  0  0  0
  -21.2221  -17.4672    3.0305 O   0  0  0  0  0  0  0  0  0  0  0  0
  -23.0668  -18.3769    4.1687 N   0  0  0  0  0  0  0  0  0  0  0  0
  -23.6739  -19.1343    3.3746 C   0  0  1  0  0  0  0  0  0  0  0  0
  -23.5482  -20.4454    3.0932 C   0  0  0  0  0  0  0  0  0  0  0  0
  -22.6223  -20.8244    1.9088 C   0  0  0  0  0  0  0  0  0  0  0  0
  -21.6534  -21.8853    2.3179 C   0  0  0  0  0  0  0  0  0  0  0  0
  -21.1459  -22.5588    1.2697 N   0  0  0  0  0  0  0  0  0  0  0  0
  -20.9381  -21.8359    3.3907 O   0  0  0  0  0  0  0  0  0  0  0  0
  -24.9908  -18.5224    3.3713 C   0  0  0  0  0  0  0  0  0  0  0  0
  -25.9515  -18.9680    3.9338 O   0  0  0  0  0  0  0  0  0  0  0  0
  -25.1646  -17.3198    2.7325 N   0  0  0  0  0  0  0  0  0  0  0  0
  -26.2591  -16.4889    2.8267 C   0  0  1  0  0  0  0  0  0  0  0  0
  -26.2503  -15.0601    2.4976 C   0  0  0  0  0  0  0  0  0  0  0  0
  -25.7323  -14.1956    3.5501 C   0  0  0  0  0  0  0  0  0  0  0  0
  -25.0361  -12.7227    3.1257 S   0  0  0  0  0  0  0  0  0  0  0  0
  -24.1501  -12.3663    1.9193 C   0  0  0  0  0  0  0  0  0  0  0  0
  -27.5305  -16.9223    2.4737 C   0  0  0  0  0  0  0  0  0  0  0  0
  -28.3157  -17.2138    3.2396 O   0  0  0  0  0  0  0  0  0  0  0  0
  -27.6951  -17.0864    1.2318 N   0  0  0  0  0  0  0  0  0  0  0  0
  -28.8066  -17.7462    0.7686 C   0  0  1  0  0  0  0  0  0  0  0  0
  -29.4591  -17.7214   -0.4742 C   0  0  0  0  0  0  0  0  0  0  0  0
  -28.6440  -18.6578    1.5315 C   0  0  0  0  0  0  0  0  0  0  0  0
  -27.9056  -19.5282    1.2004 O   0  0  0  0  0  0  0  0  0  0  0  0
  -29.3619  -18.2715    2.5791 N   0  0  0  0  0  0  0  0  0  0  0  0
  -29.1797  -18.8424    3.5833 C   0  0  1  0  0  0  0  0  0  0  0  0
  -28.0418  -18.2874    3.6577 C   0  0  0  0  0  0  0  0  0  0  0  0
  -27.8180  -17.3344    4.3006 O   0  0  0  0  0  0  0  0  0  0  0  0
  -27.4205  -18.8394    2.9687 N   0  0  0  0  0  0  0  0  0  0  0  0
  -26.3619  -18.4441    2.7904 C   0  0  1  0  0  0  0  0  0  0  0  0
  -25.5379  -19.1732    1.9008 C   0  0  0  0  0  0  0  0  0  0  0  0
  -26.0734  -20.5083    1.1342 C   0  0  0  0  0  0  0  0  0  0  0  0
  -25.5565  -20.7181   -0.5447 C   0  0  0  0  0  0  0  0  0  0  0  0
  -26.1272  -21.9857   -1.1524 C   0  0  0  0  0  0  0  0  0  0  0  0
  -26.6249  -21.8666   -2.4784 N   0  0  0  0  0  0  0  0  0  0  0  0
  -26.1063  -16.7249    3.2677 C   0  0  0  0  0  0  0  0  0  0  0  0
  -25.2853  -16.0455    2.7583 O   0  0  0  0  0  0  0  0  0  0  0  0
  -26.9510  -15.8574    4.3098 N   0  0  0  0  0  0  0  0  0  0  0  0
  -26.8877  -14.2117    4.8227 C   0  0  2  0  0  0  0  0  0  0  0  0
  -27.3394  -14.0054    6.2882 C   0  0  0  0  0  0  0  0  0  0  0  0
  -26.5070  -14.8467    7.4683 C   0  0  0  0  0  0  0  0  0  0  0  0
  -26.7582  -14.6830    8.9157 C   0  0  0  0  0  0  0  0  0  0  0  0
  -26.3901  -15.3327   10.0326 C   0  0  0  0  0  0  0  0  0  0  0  0
  -26.5241  -15.7648   11.3409 N   0  0  0  0  0  0  0  0  0  0  0  0
  -27.2854  -12.6687    3.9986 C   0  0  0  0  0  0  0  0  0  0  0  0
  -26.7112  -11.6003    4.4332 O   0  0  0  0  0  0  0  0  0  0  0  0
  -28.0801  -12.2684    2.6203 N   0  0  0  0  0  0  0  0  0  0  0  0
  -28.3712  -10.9735    1.8198 C   0  0  1  0  0  0  0  0  0  0  0  0
  -28.1678   -9.9600    0.7953 C   0  0  0  0  0  0  0  0  0  0  0  0
  -27.9946   -9.2739   -0.3110 C   0  0  0  0  0  0  0  0  0  0  0  0
  -27.6995   -9.9145   -1.5096 C   0  0  0  0  0  0  0  0  0  0  0  0
  -27.4072   -9.1059   -2.6708 C   0  0  0  0  0  0  0  0  0  0  0  0
  -27.4127   -7.7275   -2.6171 C   0  0  0  0  0  0  0  0  0  0  0  0
  -26.9726   -6.9917   -3.7432 O   0  0  0  0  0  0  0  0  0  0  0  0
  -27.7888   -7.0969   -1.4870 C   0  0  0  0  0  0  0  0  0  0  0  0
  -28.0992   -7.8392   -0.2777 C   0  0  0  0  0  0  0  0  0  0  0  0
  -29.7773  -11.1612    1.5756 C   0  0  0  0  0  0  0  0  0  0  0  0
  -30.6818  -10.6624    2.2821 O   0  0  0  0  0  0  0  0  0  0  0  0
  -30.0017  -11.9531    0.5810 N   0  0  0  0  0  0  0  0  0  0  0  0
  -31.3484  -12.0304    0.1299 C   0  0  2  0  0  0  0  0  0  0  0  0
  -31.6655  -13.1654   -0.6287 C   0  0  0  0  0  0  0  0  0  0  0  0
  -32.5140  -14.1843   -0.6082 C   0  0  0  0  0  0  0  0  0  0  0  0
  -33.6984  -14.2681   -1.4434 C   0  0  0  0  0  0  0  0  0  0  0  0
  -32.1793  -15.4023    0.0726 C   0  0  0  0  0  0  0  0  0  0  0  0
  -31.0179  -10.8533   -0.5721 C   0  0  0  0  0  0  0  0  0  0  0  0
  -30.7205  -10.8198   -1.7523 O   0  0  0  0  0  0  0  0  0  0  0  0
  -31.1126   -9.8312    0.3241 N   0  0  0  0  0  0  0  0  0  0  0  0
  -30.7342   -8.6097    0.0083 C   0  0  1  0  0  0  0  0  0  0  0  0
  -30.7851   -7.4681   -0.8830 C   0  0  0  0  0  0  0  0  0  0  0  0
  -31.3296   -7.9949    1.2954 C   0  0  0  0  0  0  0  0  0  0  0  0
  -30.6025   -7.7310    2.2158 O   0  0  0  0  0  0  0  0  0  0  0  0
  -32.8458   -7.9750    1.2858 N   0  0  0  0  0  0  0  0  0  0  0  0
  -33.9995   -7.7219    2.2127 C   0  0  2  0  0  0  0  0  0  0  0  0
  -35.2392   -7.7649    1.5667 C   0  0  0  0  0  0  0  0  0  0  0  0
  -33.8827   -7.3576    3.6263 C   0  0  0  0  0  0  0  0  0  0  0  0
  -33.2346   -6.3073    3.9550 O   0  0  0  0  0  0  0  0  0  0  0  0
  -34.6825   -8.1452    4.4975 N   0  0  0  0  0  0  0  0  0  0  0  0
  -34.7577   -8.1979    5.6927 C   0  0  1  0  0  0  0  0  0  0  0  0
  -35.4419   -7.4814    6.8050 C   0  0  0  0  0  0  0  0  0  0  0  0
  -36.2252   -6.5677    6.5895 O   0  0  0  0  0  0  0  0  0  0  0  0
  -35.1040   -7.9580    8.0512 N   0  0  0  0  0  0  0  0  0  0  0  0
  -35.6019   -7.3569    9.4583 C   0  0  2  0  0  0  0  0  0  0  0  0
  -34.6717   -6.7545   10.2738 C   0  0  0  0  0  0  0  0  0  0  0  0
  -33.9034   -7.2310   11.4086 C   0  0  0  0  0  0  0  0  0  0  0  0
  -34.3028   -7.2972   12.7758 C   0  0  0  0  0  0  0  0  0  0  0  0
  -32.4705   -6.7328   11.1377 C   0  0  0  0  0  0  0  0  0  0  0  0
  -36.4989   -8.2589   10.3591 C   0  0  0  0  0  0  0  0  0  0  0  0
  -37.7352   -8.2996   10.1011 O   0  0  0  0  0  0  0  0  0  0  0  0
  -35.9941   -9.1961   11.0306 O   0  0  0  0  0  0  0  0  0  0  0  0
  -35.4423   -9.6854    5.9449 C   0  0  0  0  0  0  0  0  0  0  0  0
  -34.3896  -10.4572    6.6609 C   0  0  0  0  0  0  0  0  0  0  0  0
  -36.3653  -10.1263    4.9919 C   0  0  0  0  0  0  0  0  0  0  0  0
  -29.8911  -19.3029    4.5553 C   0  0  0  0  0  0  0  0  0  0  0  0
  -30.5746  -20.6121    4.4938 C   0  0  0  0  0  0  0  0  0  0  0  0
  -30.5657  -18.2797    5.3468 C   0  0  0  0  0  0  0  0  0  0  0  0
  -15.5251  -15.2955   19.3424 C   0  0  1  0  0  0  0  0  0  0  0  0
  -15.4443  -14.1576   20.3134 C   0  0  0  0  0  0  0  0  0  0  0  0
  -14.7254  -16.3073   19.5080 O   0  0  0  0  0  0  0  0  0  0  0  0
  1  2  1  0
  2  3  1  0
  3  4  1  6
  3  5  1  0
  5  6  1  1
  6  7  1  0
  7  8  2  0
  7  9  1  0
  9 10  1  0
 10 11  1  0
 11 12  2  0
 11 13  1  0
 13 14  1  1
 14 15  1  0
 15 16  2  0
 15 17  1  0
 13 18  1  0
 18 19  1  0
 19 20  2  0
 19 21  1  0
 21 22  1  1
 22 23  1  0
 21 24  1  0
 24 25  1  0
 25 26  2  0
 25 27  1  0
 27 28  1  6
 27 29  1  0
 29 30  1  0
 30 31  2  0
 31 32  1  0
 32 33  1  0
 33 34  2  0
  5 35  1  0
 35 36  2  0
 35 37  1  0
 37 38  1  0
 38 39  1  1
 39 40  1  0
 40 41  2  0
 41 42  1  0
 42 43  2  0
 43 44  1  0
 44 45  2  0
 38 46  1  0
 46 47  2  0
 46 48  1  0
 49 48  1  1
 49 50  1  0
 50 51  2  0
 50 52  1  0
 52 53  1  0
 53 54  1  1
 54 55  1  0
 55 56  2  0
 55 57  1  0
 53 58  1  0
 58 59  2  0
 58 60  1  0
 60 61  1  0
 61 62  1  1
 62 63  1  0
 61 64  1  0
 64 65  2  0
 64 66  1  0
 66 67  1  0
 67 68  1  1
 68 69  1  0
 69 70  2  0
 70 71  1  0
 71 72  2  0
 72 73  1  0
 72 74  1  0
 74 75  2  0
 67 76  1  0
 76 77  2  0
 76 78  1  0
 78 79  1  0
 79 80  1  6
 80 81  1  0
 79 82  1  0
 82 83  2  0
 82 84  1  0
 84 85  1  0
 85 86  1  6
 86 87  1  0
 87 88  1  0
 88 89  1  0
 89 90  1  0
 90 91  2  0
 90 92  1  0
 85 93  1  0
 93 94  2  0
 93 95  1  0
 95 96  1  0
 96 97  1  1
 97 98  1  0
 98 99  2  0
 99100  1  0
100101  2  0
101102  1  0
101103  1  0
103104  2  0
 96105  1  0
105106  2  0
105107  1  0
107108  1  0
108109  1  1
109110  1  0
110111  1  0
111112  1  0
112113  1  0
113114  2  0
113115  1  0
108116  1  0
116117  2  0
116118  1  0
118119  1  0
119120  1  6
120121  1  0
121122  1  0
122123  1  0
123124  1  0
119125  1  0
125126  2  0
125127  1  0
127128  1  0
128129  1  1
129130  1  0
130131  1  0
131132  1  0
131133  2  0
128134  1  0
134135  2  0
134136  1  0
136137  1  0
137138  1  6
138139  1  0
139140  1  0
140141  1  0
137142  1  0
142143  2  0
142144  1  0
144145  1  0
145146  1  6
145147  1  0
147148  2  0
147149  1  0
150149  1  6
150151  1  0
151152  2  0
151153  1  0
153154  1  0
154155  1  6
155156  1  0
156157  1  0
157158  1  0
158159  1  0
154160  1  0
160161  2  0
160162  1  0
162163  1  0
163164  1  6
164165  1  0
165166  1  0
166167  1  0
167168  1  0
163169  1  0
169170  2  0
169171  1  0
171172  1  0
172173  1  6
173174  1  0
174175  2  0
175176  1  0
176177  2  0
177178  1  0
177179  1  0
179180  2  0
172181  1  0
181182  2  0
181183  1  0
183184  1  0
184185  1  1
185186  1  0
186187  1  0
186188  1  0
184189  1  0
189190  2  0
189191  1  0
191192  1  0
192193  1  6
192194  1  0
194195  2  0
194196  1  0
196197  1  0
197198  1  1
197199  1  0
199200  2  0
199201  1  0
202201  1  1
202203  1  0
203204  2  0
203205  1  0
205206  1  0
206207  1  6
207208  1  0
208209  1  0
208210  1  0
206211  1  0
211212  2  0
211213  1  0
202214  1  0
214215  1  0
214216  1  0
150217  1  0
217218  1  0
217219  1  0
 49220  1  0
220221  1  1
220222  1  0
 34 30  1  0
 45 40  1  0
 75 69  1  0
104 98  1  0
180174  1  0
M  END
$$$$
