
     RDKit          3D

229236  0  0  0  0  0  0  0  0999 V2000
    4.1338   -2.6024  -22.2459 C   0  0  0  0  0  0  0  0  0  0  0  0
    5.4432   -2.3932  -22.6743 C   0  0  0  0  0  0  0  0  0  0  0  0
    5.4838   -1.3698  -23.8393 C   0  0  0  0  0  0  0  0  0  0  0  0
    6.6143   -2.4060  -22.0424 C   0  0  0  0  0  0  0  0  0  0  0  0
    7.4005   -2.7667  -20.9535 C   0  0  1  0  0  0  0  0  0  0  0  0
    6.6688   -3.7367  -19.8799 N   0  0  0  0  0  0  0  0  0  0  0  0
    6.7587   -3.8682  -18.5433 C   0  0  0  0  0  0  0  0  0  0  0  0
    7.6328   -3.0704  -18.0999 O   0  0  0  0  0  0  0  0  0  0  0  0
    5.8803   -4.8932  -17.6232 C   0  0  2  0  0  0  0  0  0  0  0  0
    6.6615   -5.9773  -17.8195 C   0  0  0  0  0  0  0  0  0  0  0  0
    5.8825   -7.2175  -18.0863 C   0  0  0  0  0  0  0  0  0  0  0  0
    5.1558   -8.0133  -17.0301 C   0  0  0  0  0  0  0  0  0  0  0  0
    4.5321   -9.1793  -17.4107 C   0  0  0  0  0  0  0  0  0  0  0  0
    4.4939   -9.5220  -18.7125 C   0  0  0  0  0  0  0  0  0  0  0  0
    5.0254   -8.7916  -19.7478 C   0  0  0  0  0  0  0  0  0  0  0  0
    5.6849   -7.5840  -19.4694 C   0  0  0  0  0  0  0  0  0  0  0  0
    4.7277   -4.2832  -17.1441 N   0  0  0  0  0  0  0  0  0  0  0  0
    4.2709   -4.2921  -15.8533 C   0  0  0  0  0  0  0  0  0  0  0  0
    4.9031   -5.1017  -15.0127 O   0  0  0  0  0  0  0  0  0  0  0  0
    2.9572   -3.6229  -15.3292 C   0  0  2  0  0  0  0  0  0  0  0  0
    2.2475   -4.6411  -14.2235 C   0  0  0  0  0  0  0  0  0  0  0  0
    2.3273   -4.3707  -12.7446 C   0  0  0  0  0  0  0  0  0  0  0  0
    3.5263   -4.0766  -12.0796 C   0  0  0  0  0  0  0  0  0  0  0  0
    3.4241   -3.7887  -10.6445 C   0  0  0  0  0  0  0  0  0  0  0  0
    2.3171   -3.8174   -9.9187 C   0  0  0  0  0  0  0  0  0  0  0  0
    2.3571   -3.5407   -8.4895 O   0  0  0  0  0  0  0  0  0  0  0  0
    1.1557   -4.1034  -10.5331 C   0  0  0  0  0  0  0  0  0  0  0  0
    1.1697   -4.3323  -11.9745 C   0  0  0  0  0  0  0  0  0  0  0  0
    2.2058   -2.8727  -16.3682 N   0  0  0  0  0  0  0  0  0  0  0  0
    2.4207   -1.3115  -16.9711 C   0  0  0  0  0  0  0  0  0  0  0  0
    3.3384   -0.5863  -16.3693 O   0  0  0  0  0  0  0  0  0  0  0  0
    1.6981   -0.6013  -18.3664 C   0  0  0  0  0  0  0  0  0  0  0  0
    2.0492    0.0166  -19.6535 N   0  0  0  0  0  0  0  0  0  0  0  0
    2.1945    1.4476  -19.9096 C   0  0  0  0  0  0  0  0  0  0  0  0
    2.0337    2.1221  -18.9533 O   0  0  0  0  0  0  0  0  0  0  0  0
    2.6726    2.1494  -21.2248 C   0  0  2  0  0  0  0  0  0  0  0  0
    3.8743    2.2597  -21.4910 C   0  0  0  0  0  0  0  0  0  0  0  0
    4.3692    3.3230  -22.4133 C   0  0  0  0  0  0  0  0  0  0  0  0
    4.8495    4.2843  -22.8449 C   0  0  0  0  0  0  0  0  0  0  0  0
    5.1184    5.3315  -22.8921 N   0  0  0  0  0  0  0  0  0  0  0  0
    5.1727    6.6515  -23.5738 C   0  0  0  0  0  0  0  0  0  0  0  0
    4.1864    7.4160  -23.4903 N   0  0  0  0  0  0  0  0  0  0  0  0
    6.2139    6.9839  -24.1655 N   0  0  0  0  0  0  0  0  0  0  0  0
    1.9593    3.0202  -22.0367 N   0  0  0  0  0  0  0  0  0  0  0  0
    0.7540    3.5703  -21.9530 C   0  0  0  0  0  0  0  0  0  0  0  0
   -0.0272    3.2681  -21.0867 O   0  0  0  0  0  0  0  0  0  0  0  0
    0.5869    4.5838  -22.9274 C   0  0  1  0  0  0  0  0  0  0  0  0
   -0.5246    4.3515  -23.7541 C   0  0  0  0  0  0  0  0  0  0  0  0
   -0.9841    3.1766  -24.2451 O   0  0  0  0  0  0  0  0  0  0  0  0
    1.1798    5.6231  -22.1213 N   0  0  0  0  0  0  0  0  0  0  0  0
    2.4061    6.1109  -22.1651 C   0  0  0  0  0  0  0  0  0  0  0  0
    2.9937    5.5825  -23.2179 O   0  0  0  0  0  0  0  0  0  0  0  0
    2.9412    7.2361  -21.2051 C   0  0  2  0  0  0  0  0  0  0  0  0
    4.0952    6.8128  -20.5956 C   0  0  0  0  0  0  0  0  0  0  0  0
    5.4567    7.3499  -20.5401 C   0  0  0  0  0  0  0  0  0  0  0  0
    6.6339    6.7500  -19.6281 C   0  0  0  0  0  0  0  0  0  0  0  0
    7.2573    7.7187  -18.9886 N   0  0  0  0  0  0  0  0  0  0  0  0
    6.7192    5.5789  -19.2812 O   0  0  0  0  0  0  0  0  0  0  0  0
    1.7799    7.5309  -20.5314 N   0  0  0  0  0  0  0  0  0  0  0  0
    0.8544    8.5996  -20.8492 C   0  0  0  0  0  0  0  0  0  0  0  0
    1.3154    9.5670  -21.5755 O   0  0  0  0  0  0  0  0  0  0  0  0
   -0.5183    8.6385  -20.1293 C   0  0  2  0  0  0  0  0  0  0  0  0
   -1.5244    9.1252  -21.0971 C   0  0  0  0  0  0  0  0  0  0  0  0
   -2.8064    8.9535  -20.9808 O   0  0  0  0  0  0  0  0  0  0  0  0
   -0.4148    9.1556  -18.7505 N   0  0  0  0  0  0  0  0  0  0  0  0
   -0.7682    8.2772  -17.5811 C   0  0  0  0  0  0  0  0  0  0  0  0
   -1.3396    7.1778  -17.6661 O   0  0  0  0  0  0  0  0  0  0  0  0
   -0.4027    8.7980  -16.1590 C   0  0  1  0  0  0  0  0  0  0  0  0
   -1.2832    9.8074  -15.7301 C   0  0  0  0  0  0  0  0  0  0  0  0
    0.5990    8.1172  -15.2415 N   0  0  0  0  0  0  0  0  0  0  0  0
    1.1999    6.8983  -15.2305 C   0  0  0  0  0  0  0  0  0  0  0  0
    0.7993    6.1168  -16.1527 O   0  0  0  0  0  0  0  0  0  0  0  0
    2.2736    6.4964  -14.1423 C   0  0  2  0  0  0  0  0  0  0  0  0
    3.3908    6.0484  -14.7086 C   0  0  0  0  0  0  0  0  0  0  0  0
    4.4297    5.6271  -15.4150 C   0  0  0  0  0  0  0  0  0  0  0  0
    5.6866    6.4672  -15.5050 C   0  0  0  0  0  0  0  0  0  0  0  0
    6.8044    6.1638  -16.3597 C   0  0  0  0  0  0  0  0  0  0  0  0
    6.7549    4.9544  -17.1444 C   0  0  0  0  0  0  0  0  0  0  0  0
    5.6705    4.1147  -17.1530 C   0  0  0  0  0  0  0  0  0  0  0  0
    4.5214    4.4284  -16.3214 C   0  0  0  0  0  0  0  0  0  0  0  0
    1.6906    5.8077  -13.0681 N   0  0  0  0  0  0  0  0  0  0  0  0
    1.7933    6.2356  -11.5593 C   0  0  0  0  0  0  0  0  0  0  0  0
    2.6367    7.0935  -11.1896 O   0  0  0  0  0  0  0  0  0  0  0  0
    1.0190    5.6096  -10.5119 C   0  0  1  0  0  0  0  0  0  0  0  0
    0.8962    4.2484  -10.1691 C   0  0  0  0  0  0  0  0  0  0  0  0
   -0.1014    4.2075   -9.0421 C   0  0  0  0  0  0  0  0  0  0  0  0
   -0.7365    5.5408   -9.0313 C   0  0  0  0  0  0  0  0  0  0  0  0
    0.3360    6.4219   -9.6629 N   0  0  0  0  0  0  0  0  0  0  0  0
    0.6307    7.7055   -8.9925 C   0  0  0  0  0  0  0  0  0  0  0  0
    1.1397    7.9209   -7.9077 O   0  0  0  0  0  0  0  0  0  0  0  0
    0.4765    8.7169   -9.5681 C   0  0  1  0  0  0  0  0  0  0  0  0
   -0.6989    9.3737   -9.7366 C   0  0  0  0  0  0  0  0  0  0  0  0
   -1.5472    9.4366  -10.6104 O   0  0  0  0  0  0  0  0  0  0  0  0
    1.8455    9.2714   -9.6506 N   0  0  0  0  0  0  0  0  0  0  0  0
    3.0431    8.6742   -9.2809 C   0  0  0  0  0  0  0  0  0  0  0  0
    2.7749    7.6460   -8.9262 O   0  0  0  0  0  0  0  0  0  0  0  0
    4.3523    9.3677   -9.4523 C   0  0  2  0  0  0  0  0  0  0  0  0
    5.3494    9.0625   -8.7133 C   0  0  0  0  0  0  0  0  0  0  0  0
    6.7074    9.5689   -9.2733 C   0  0  0  0  0  0  0  0  0  0  0  0
    7.7635    8.7816   -8.9401 C   0  0  0  0  0  0  0  0  0  0  0  0
    8.9562    9.5520   -9.2180 N   0  0  0  0  0  0  0  0  0  0  0  0
    7.7971    7.5731   -8.7181 O   0  0  0  0  0  0  0  0  0  0  0  0
    4.2073   10.4034   -9.9556 N   0  0  0  0  0  0  0  0  0  0  0  0
    5.1621   10.9839  -10.6166 C   0  0  0  0  0  0  0  0  0  0  0  0
    6.3189   10.6618  -10.7543 O   0  0  0  0  0  0  0  0  0  0  0  0
    4.6462   12.0093  -11.0569 C   0  0  2  0  0  0  0  0  0  0  0  0
    5.2730   13.0704  -12.0047 C   0  0  0  0  0  0  0  0  0  0  0  0
    5.8013   12.9803  -13.4089 C   0  0  0  0  0  0  0  0  0  0  0  0
    7.1737   12.5999  -13.6771 C   0  0  0  0  0  0  0  0  0  0  0  0
    7.6591   12.5070  -15.0492 C   0  0  0  0  0  0  0  0  0  0  0  0
    6.7654   12.6232  -16.0935 C   0  0  0  0  0  0  0  0  0  0  0  0
    5.4007   12.8278  -15.8475 C   0  0  0  0  0  0  0  0  0  0  0  0
    4.8894   12.9455  -14.4944 C   0  0  0  0  0  0  0  0  0  0  0  0
    4.7844   11.6057  -10.0112 N   0  0  0  0  0  0  0  0  0  0  0  0
    3.8003   11.1827   -9.5139 C   0  0  0  0  0  0  0  0  0  0  0  0
    2.6604   11.5666   -9.7779 O   0  0  0  0  0  0  0  0  0  0  0  0
    4.1308   10.2805   -8.5829 C   0  0  2  0  0  0  0  0  0  0  0  0
    3.9320   11.1911   -7.4063 C   0  0  0  0  0  0  0  0  0  0  0  0
    4.0731   10.7260   -6.0882 C   0  0  0  0  0  0  0  0  0  0  0  0
    3.3961   11.8015   -5.0708 C   0  0  0  0  0  0  0  0  0  0  0  0
    2.2645   11.5727   -4.7071 O   0  0  0  0  0  0  0  0  0  0  0  0
    3.9473   12.8592   -4.8293 O   0  0  0  0  0  0  0  0  0  0  0  0
    4.8668    9.8424   -9.4465 N   0  0  0  0  0  0  0  0  0  0  0  0
    4.7203    8.6029  -10.2048 C   0  0  0  0  0  0  0  0  0  0  0  0
    4.2268    7.5838   -9.6246 O   0  0  0  0  0  0  0  0  0  0  0  0
    5.3336    8.3230  -11.5651 C   0  0  2  0  0  0  0  0  0  0  0  0
    6.4126    7.3644  -11.6393 C   0  0  0  0  0  0  0  0  0  0  0  0
    6.3409    6.4751  -13.0459 C   0  0  0  0  0  0  0  0  0  0  0  0
    7.2999    5.3012  -13.7170 C   0  0  0  0  0  0  0  0  0  0  0  0
    8.1599    5.7250  -14.5753 O   0  0  0  0  0  0  0  0  0  0  0  0
    6.6543    4.2657  -14.1438 O   0  0  0  0  0  0  0  0  0  0  0  0
    5.4931    9.4971  -12.2249 N   0  0  0  0  0  0  0  0  0  0  0  0
    4.4433   10.2471  -12.5239 C   0  0  0  0  0  0  0  0  0  0  0  0
    3.2831   10.0755  -12.1804 O   0  0  0  0  0  0  0  0  0  0  0  0
    4.7556   11.3189  -13.4896 C   0  0  1  0  0  0  0  0  0  0  0  0
    4.4371   12.5926  -12.8828 C   0  0  0  0  0  0  0  0  0  0  0  0
    4.3490   13.8396  -13.5398 C   0  0  0  0  0  0  0  0  0  0  0  0
    5.3752   14.5371  -13.8044 O   0  0  0  0  0  0  0  0  0  0  0  0
    3.1758   14.3909  -13.5978 O   0  0  0  0  0  0  0  0  0  0  0  0
    5.6571   10.6932  -13.5633 N   0  0  0  0  0  0  0  0  0  0  0  0
    5.6451    9.6910  -14.6398 C   0  0  0  0  0  0  0  0  0  0  0  0
    4.9810    9.6639  -15.6885 O   0  0  0  0  0  0  0  0  0  0  0  0
    6.7227    8.7041  -14.5007 C   0  0  1  0  0  0  0  0  0  0  0  0
    6.0628    7.2850  -14.4177 N   0  0  0  0  0  0  0  0  0  0  0  0
    6.0219    6.6458  -13.3041 C   0  0  0  0  0  0  0  0  0  0  0  0
    6.5575    7.1194  -12.3700 O   0  0  0  0  0  0  0  0  0  0  0  0
    5.2687    5.2862  -13.2684 C   0  0  2  0  0  0  0  0  0  0  0  0
    4.5932    5.0364  -12.0393 C   0  0  0  0  0  0  0  0  0  0  0  0
    4.4763    3.7518  -11.4029 C   0  0  0  0  0  0  0  0  0  0  0  0
    3.8007    3.1598  -10.1194 C   0  0  0  0  0  0  0  0  0  0  0  0
    2.9308    2.4681   -9.8749 N   0  0  0  0  0  0  0  0  0  0  0  0
    1.5636    2.2852   -9.7313 C   0  0  0  0  0  0  0  0  0  0  0  0
    0.7373    2.4669  -10.6788 N   0  0  0  0  0  0  0  0  0  0  0  0
    1.0892    1.8030   -8.5732 N   0  0  0  0  0  0  0  0  0  0  0  0
    5.3611    4.0763  -14.1307 N   0  0  0  0  0  0  0  0  0  0  0  0
    5.2472    3.9136  -15.5404 C   0  0  0  0  0  0  0  0  0  0  0  0
    5.3570    4.9236  -16.2185 O   0  0  0  0  0  0  0  0  0  0  0  0
    5.0335    2.4284  -16.3782 C   0  0  1  0  0  0  0  0  0  0  0  0
    6.0028    2.1974  -17.3907 N   0  0  0  0  0  0  0  0  0  0  0  0
    4.3038    1.4298  -15.9094 C   0  0  0  0  0  0  0  0  0  0  0  0
    2.7365    1.2094  -15.9989 C   0  0  0  0  0  0  0  0  0  0  0  0
    1.8988    0.3592  -16.7918 C   0  0  0  0  0  0  0  0  0  0  0  0
    0.6370    0.0408  -16.7901 C   0  0  0  0  0  0  0  0  0  0  0  0
   -0.1264    0.7216  -15.8274 C   0  0  0  0  0  0  0  0  0  0  0  0
    0.4753    1.5846  -14.9948 C   0  0  0  0  0  0  0  0  0  0  0  0
    1.9390    1.9266  -15.0348 C   0  0  0  0  0  0  0  0  0  0  0  0
    7.6986    8.8477  -15.6061 C   0  0  0  0  0  0  0  0  0  0  0  0
    9.1341    8.5774  -15.2683 C   0  0  0  0  0  0  0  0  0  0  0  0
    7.2464    8.6233  -16.9639 C   0  0  0  0  0  0  0  0  0  0  0  0
    8.9628   -3.0240  -21.2324 C   0  0  0  0  0  0  0  0  0  0  0  0
    9.3248   -3.8888  -22.0249 O   0  0  0  0  0  0  0  0  0  0  0  0
   10.0527   -2.2609  -20.5503 N   0  0  0  0  0  0  0  0  0  0  0  0
   11.6361   -2.1724  -20.6411 C   0  0  2  0  0  0  0  0  0  0  0  0
   12.7209   -1.7686  -19.6816 C   0  0  0  0  0  0  0  0  0  0  0  0
   13.5442   -2.4014  -18.5183 C   0  0  0  0  0  0  0  0  0  0  0  0
   14.2104   -3.7130  -18.5368 C   0  0  0  0  0  0  0  0  0  0  0  0
   15.1375   -4.0219  -17.4233 C   0  0  0  0  0  0  0  0  0  0  0  0
   15.3647   -3.1757  -16.3058 C   0  0  0  0  0  0  0  0  0  0  0  0
   14.6614   -1.9836  -16.2874 C   0  0  0  0  0  0  0  0  0  0  0  0
   13.7591   -1.6889  -17.3036 C   0  0  0  0  0  0  0  0  0  0  0  0
   12.0510   -2.0627  -21.9357 C   0  0  0  0  0  0  0  0  0  0  0  0
   12.1082   -0.9293  -22.4459 O   0  0  0  0  0  0  0  0  0  0  0  0
   12.1434   -3.1090  -22.6535 N   0  0  0  0  0  0  0  0  0  0  0  0
   12.3884   -2.9461  -24.0791 C   0  0  2  0  0  0  0  0  0  0  0  0
   12.1580   -4.3942  -24.5569 C   0  0  0  0  0  0  0  0  0  0  0  0
   11.9331   -4.6161  -25.9468 C   0  0  0  0  0  0  0  0  0  0  0  0
   11.6445   -5.6901  -26.9210 C   0  0  0  0  0  0  0  0  0  0  0  0
   10.9022   -5.2624  -27.9118 N   0  0  0  0  0  0  0  0  0  0  0  0
    9.7700   -4.9450  -28.3811 C   0  0  0  0  0  0  0  0  0  0  0  0
    9.4353   -5.2370  -29.6011 N   0  0  0  0  0  0  0  0  0  0  0  0
    8.9282   -4.1112  -27.8160 N   0  0  0  0  0  0  0  0  0  0  0  0
   13.3397   -2.0222  -24.2731 C   0  0  0  0  0  0  0  0  0  0  0  0
   14.5121   -2.3196  -23.8516 O   0  0  0  0  0  0  0  0  0  0  0  0
   12.7447   -0.8859  -24.8743 N   0  0  0  0  0  0  0  0  0  0  0  0
   11.9492   -1.0072  -26.0690 C   0  0  0  0  0  0  0  0  0  0  0  0
   12.2211    0.2076  -26.9379 C   0  0  0  0  0  0  0  0  0  0  0  0
   13.2988    1.1692  -26.2421 C   0  0  0  0  0  0  0  0  0  0  0  0
   13.5252    0.3794  -24.9738 C   0  0  1  0  0  0  0  0  0  0  0  0
   14.1018    1.3530  -24.1489 C   0  0  0  0  0  0  0  0  0  0  0  0
   15.2042    1.1967  -23.6557 O   0  0  0  0  0  0  0  0  0  0  0  0
   13.4306    2.7183  -23.9303 N   0  0  0  0  0  0  0  0  0  0  0  0
   13.8396    3.9317  -23.3364 C   0  0  1  0  0  0  0  0  0  0  0  0
   13.3090    5.1313  -22.5632 C   0  0  0  0  0  0  0  0  0  0  0  0
   12.6704    6.3061  -23.2670 C   0  0  0  0  0  0  0  0  0  0  0  0
   12.4461    7.7815  -22.5282 C   0  0  0  0  0  0  0  0  0  0  0  0
   11.6465    8.7344  -22.8544 N   0  0  0  0  0  0  0  0  0  0  0  0
   11.2703    9.4514  -23.8547 C   0  0  0  0  0  0  0  0  0  0  0  0
   10.3641   10.4527  -23.8436 N   0  0  0  0  0  0  0  0  0  0  0  0
   11.6507    9.1469  -25.0092 N   0  0  0  0  0  0  0  0  0  0  0  0
   15.0447    3.6958  -23.4129 C   0  0  0  0  0  0  0  0  0  0  0  0
   15.6811    3.4602  -22.3831 O   0  0  0  0  0  0  0  0  0  0  0  0
   15.3695    4.0002  -24.7596 N   0  0  0  0  0  0  0  0  0  0  0  0
   16.1390    3.6281  -25.1652 C   0  0  2  0  0  0  0  0  0  0  0  0
   17.3683    3.9306  -26.0574 C   0  0  0  0  0  0  0  0  0  0  0  0
   18.5845    3.0676  -25.8328 C   0  0  0  0  0  0  0  0  0  0  0  0
   19.4446    3.3514  -24.8341 N   0  0  0  0  0  0  0  0  0  0  0  0
   18.7542    2.0765  -26.5641 O   0  0  0  0  0  0  0  0  0  0  0  0
   15.1279    3.9055  -26.0176 C   0  0  0  0  0  0  0  0  0  0  0  0
   14.3198    2.9329  -26.2439 O   0  0  0  0  0  0  0  0  0  0  0  0
   15.0482    5.2530  -26.4335 N   0  0  0  0  0  0  0  0  0  0  0  0
   13.9953    5.9778  -27.1887 C   0  0  1  0  0  0  0  0  0  0  0  0
   14.2133    7.4321  -26.8746 C   0  0  0  0  0  0  0  0  0  0  0  0
   14.3826    8.1860  -25.7042 C   0  0  0  0  0  0  0  0  0  0  0  0
   15.6461    8.4881  -25.3039 C   0  0  0  0  0  0  0  0  0  0  0  0
   16.1257    9.6543  -25.7807 N   0  0  0  0  0  0  0  0  0  0  0  0
   16.3203    7.6596  -24.6869 O   0  0  0  0  0  0  0  0  0  0  0  0
   13.1637    5.3645  -28.0617 C   0  0  0  0  0  0  0  0  0  0  0  0
   13.0751    5.4454  -29.3395 O   0  0  0  0  0  0  0  0  0  0  0  0
   12.2663    4.5806  -27.5358 O   0  0  0  0  0  0  0  0  0  0  0  0
  1  2  1  0
  2  3  1  0
  2  4  1  0
  5  4  1  1
  5  6  1  0
  6  7  1  0
  7  8  2  0
  7  9  1  0
  9 10  1  6
 10 11  1  0
 11 12  2  0
 12 13  1  0
 13 14  2  0
 14 15  1  0
 15 16  2  0
  9 17  1  0
 17 18  1  0
 18 19  2  0
 18 20  1  0
 20 21  1  6
 21 22  1  0
 22 23  2  0
 23 24  1  0
 24 25  2  0
 25 26  1  0
 25 27  1  0
 27 28  2  0
 20 29  1  0
 29 30  1  0
 30 31  2  0
 30 32  1  0
 32 33  1  0
 33 34  1  0
 34 35  2  0
 34 36  1  0
 36 37  1  1
 37 38  1  0
 38 39  1  0
 39 40  1  0
 40 41  1  0
 41 42  2  0
 41 43  1  0
 36 44  1  0
 44 45  1  0
 45 46  2  0
 45 47  1  0
 47 48  1  6
 48 49  1  0
 47 50  1  0
 50 51  1  0
 51 52  2  0
 51 53  1  0
 53 54  1  1
 54 55  1  0
 55 56  1  0
 56 57  1  0
 56 58  2  0
 53 59  1  0
 59 60  1  0
 60 61  2  0
 60 62  1  0
 62 63  1  6
 63 64  1  0
 62 65  1  0
 65 66  1  0
 66 67  2  0
 66 68  1  0
 68 69  1  6
 68 70  1  0
 70 71  1  0
 71 72  2  0
 71 73  1  0
 73 74  1  6
 74 75  1  0
 75 76  2  0
 76 77  1  0
 77 78  2  0
 78 79  1  0
 79 80  2  0
 73 81  1  0
 81 82  1  0
 82 83  2  0
 84 82  1  6
 84 85  1  0
 85 86  1  0
 86 87  1  0
 87 88  1  0
 88 89  1  0
 89 90  2  0
 89 91  1  0
 91 92  1  6
 92 93  1  0
 91 94  1  0
 94 95  1  0
 95 96  2  0
 95 97  1  0
 97 98  1  1
 98 99  1  0
 99100  1  0
100101  1  0
100102  2  0
 97103  1  0
103104  1  0
104105  2  0
104106  1  0
106107  1  1
107108  1  0
108109  2  0
109110  1  0
110111  2  0
111112  1  0
112113  2  0
106114  1  0
114115  1  0
115116  2  0
115117  1  0
117118  1  1
118119  1  0
119120  1  0
120121  2  0
120122  1  0
117123  1  0
123124  1  0
124125  2  0
124126  1  0
126127  1  1
127128  1  0
128129  1  0
129130  2  0
129131  1  0
126132  1  0
132133  1  0
133134  2  0
133135  1  0
135136  1  6
136137  1  0
137138  2  0
137139  1  0
135140  1  0
140141  1  0
141142  2  0
141143  1  0
143144  1  6
144145  1  0
145146  2  0
145147  1  0
147148  1  1
148149  1  0
149150  1  0
150151  1  0
151152  1  0
152153  2  0
152154  1  0
147155  1  0
155156  1  0
156157  2  0
156158  1  0
158159  1  1
158160  1  0
160161  1  0
161162  2  0
162163  1  0
163164  2  0
164165  1  0
165166  2  0
143167  1  0
167168  1  0
167169  1  0
  5170  1  0
170171  2  0
170172  1  0
172173  1  0
173174  1  6
174175  1  0
175176  2  0
176177  1  0
177178  2  0
178179  1  0
179180  2  0
173181  1  0
181182  2  0
181183  1  0
183184  1  0
184185  1  6
185186  1  0
186187  1  0
187188  1  0
188189  1  0
189190  2  0
189191  1  0
184192  1  0
192193  2  0
192194  1  0
194195  1  0
195196  1  0
196197  1  0
197198  1  0
198199  1  1
199200  2  0
199201  1  0
201202  1  0
202203  1  1
203204  1  0
204205  1  0
205206  1  0
206207  1  0
207208  2  0
207209  1  0
202210  1  0
210211  2  0
210212  1  0
212213  1  0
213214  1  1
214215  1  0
215216  1  0
215217  2  0
213218  1  0
218219  2  0
218220  1  0
220221  1  0
221222  1  6
222223  1  0
223224  1  0
224225  1  0
224226  2  0
221227  1  0
227228  2  0
227229  1  0
 16 11  1  0
 28 22  1  0
 80 75  1  0
 88 84  1  0
113108  1  0
166161  1  0
180175  1  0
198194  1  0
M  END
$$$$
