
     RDKit          3D

229236  0  0  0  0  0  0  0  0999 V2000
   19.9068    4.8540   -4.6434 C   0  0  0  0  0  0  0  0  0  0  0  0
   19.3278    5.5124   -5.5932 C   0  0  0  0  0  0  0  0  0  0  0  0
   19.8196    5.2677   -6.9858 C   0  0  0  0  0  0  0  0  0  0  0  0
   18.7112    6.9309   -5.7587 C   0  0  0  0  0  0  0  0  0  0  0  0
   17.8812    7.6049   -4.8235 C   0  0  2  0  0  0  0  0  0  0  0  0
   16.6541    7.0506   -4.4013 N   0  0  0  0  0  0  0  0  0  0  0  0
   16.3831    6.1256   -3.4055 C   0  0  0  0  0  0  0  0  0  0  0  0
   17.3101    5.4483   -2.9086 O   0  0  0  0  0  0  0  0  0  0  0  0
   14.9359    5.8209   -3.1044 C   0  0  2  0  0  0  0  0  0  0  0  0
   14.6630    5.7709   -1.6666 C   0  0  0  0  0  0  0  0  0  0  0  0
   13.6502    6.7306   -1.1081 C   0  0  0  0  0  0  0  0  0  0  0  0
   12.3685    6.2190   -0.7475 C   0  0  0  0  0  0  0  0  0  0  0  0
   11.3081    6.9911   -0.3639 C   0  0  0  0  0  0  0  0  0  0  0  0
   11.5068    8.4188   -0.3412 C   0  0  0  0  0  0  0  0  0  0  0  0
   12.7031    8.9690   -0.8606 C   0  0  0  0  0  0  0  0  0  0  0  0
   13.8186    8.1377   -1.0946 C   0  0  0  0  0  0  0  0  0  0  0  0
   13.9937    5.1775   -4.1320 N   0  0  0  0  0  0  0  0  0  0  0  0
   13.2813    5.7161   -5.1881 C   0  0  0  0  0  0  0  0  0  0  0  0
   13.2426    6.9088   -5.2250 O   0  0  0  0  0  0  0  0  0  0  0  0
   12.4202    4.9512   -6.2001 C   0  0  2  0  0  0  0  0  0  0  0  0
   10.9364    5.1765   -6.5388 C   0  0  0  0  0  0  0  0  0  0  0  0
    9.5387    5.2706   -6.2975 C   0  0  0  0  0  0  0  0  0  0  0  0
    8.6844    6.3387   -6.9939 C   0  0  0  0  0  0  0  0  0  0  0  0
    7.2433    6.5518   -6.8611 C   0  0  0  0  0  0  0  0  0  0  0  0
    6.5413    5.8614   -5.9571 C   0  0  0  0  0  0  0  0  0  0  0  0
    5.0981    6.1176   -5.7308 O   0  0  0  0  0  0  0  0  0  0  0  0
    7.2492    4.8667   -5.2148 C   0  0  0  0  0  0  0  0  0  0  0  0
    8.7272    4.5660   -5.2971 C   0  0  0  0  0  0  0  0  0  0  0  0
   13.0864    3.7813   -6.6035 N   0  0  0  0  0  0  0  0  0  0  0  0
   14.4370    3.5392   -7.1003 C   0  0  0  0  0  0  0  0  0  0  0  0
   15.0939    4.6078   -7.3200 O   0  0  0  0  0  0  0  0  0  0  0  0
   15.1943    2.0191   -7.2835 C   0  0  0  0  0  0  0  0  0  0  0  0
   15.8343    1.5745   -8.7631 N   0  0  0  0  0  0  0  0  0  0  0  0
   16.2558    0.2268   -9.1556 C   0  0  0  0  0  0  0  0  0  0  0  0
   15.8903   -0.7858   -8.6128 O   0  0  0  0  0  0  0  0  0  0  0  0
   17.1494    0.1134  -10.3739 C   0  0  1  0  0  0  0  0  0  0  0  0
   16.7162   -0.6405  -11.4390 C   0  0  0  0  0  0  0  0  0  0  0  0
   16.9804   -0.5093  -12.8968 C   0  0  0  0  0  0  0  0  0  0  0  0
   16.3790   -1.3273  -14.0818 C   0  0  0  0  0  0  0  0  0  0  0  0
   15.4927   -1.0124  -14.7978 N   0  0  0  0  0  0  0  0  0  0  0  0
   14.4745   -0.9376  -15.8583 C   0  0  0  0  0  0  0  0  0  0  0  0
   14.7423   -0.1368  -16.8029 N   0  0  0  0  0  0  0  0  0  0  0  0
   13.2766   -1.2879  -15.6121 N   0  0  0  0  0  0  0  0  0  0  0  0
   17.0647    0.6308   -9.6927 N   0  0  0  0  0  0  0  0  0  0  0  0
   18.1508    0.7647   -9.0957 C   0  0  0  0  0  0  0  0  0  0  0  0
   19.3628    0.4891   -9.2519 O   0  0  0  0  0  0  0  0  0  0  0  0
   17.6495    1.2595   -8.1628 C   0  0  2  0  0  0  0  0  0  0  0  0
   18.2787    2.3956   -7.5640 C   0  0  0  0  0  0  0  0  0  0  0  0
   18.0434    3.3782   -7.1519 O   0  0  0  0  0  0  0  0  0  0  0  0
   17.0215    0.2164   -7.4573 N   0  0  0  0  0  0  0  0  0  0  0  0
   15.9506   -0.5076   -7.9357 C   0  0  0  0  0  0  0  0  0  0  0  0
   15.3872   -0.2686   -8.9613 O   0  0  0  0  0  0  0  0  0  0  0  0
   15.4016   -1.5272   -7.0224 C   0  0  1  0  0  0  0  0  0  0  0  0
   14.6414   -1.2452   -5.9513 C   0  0  0  0  0  0  0  0  0  0  0  0
   14.8149   -2.2620   -4.8128 C   0  0  0  0  0  0  0  0  0  0  0  0
   13.6847   -2.9989   -4.3169 C   0  0  0  0  0  0  0  0  0  0  0  0
   13.6910   -3.0569   -2.9578 N   0  0  0  0  0  0  0  0  0  0  0  0
   12.8820   -3.7485   -4.9731 O   0  0  0  0  0  0  0  0  0  0  0  0
   15.2918   -2.6298   -7.4706 N   0  0  0  0  0  0  0  0  0  0  0  0
   16.0603   -3.2206   -8.0027 C   0  0  0  0  0  0  0  0  0  0  0  0
   17.1159   -2.8148   -8.2251 O   0  0  0  0  0  0  0  0  0  0  0  0
   15.5855   -4.2344   -8.2329 C   0  0  1  0  0  0  0  0  0  0  0  0
   16.0098   -5.5094   -7.8214 C   0  0  0  0  0  0  0  0  0  0  0  0
   17.1900   -6.1699   -7.7610 O   0  0  0  0  0  0  0  0  0  0  0  0
   14.3494   -3.5496   -8.0012 N   0  0  0  0  0  0  0  0  0  0  0  0
   14.1187   -2.2394   -8.4826 C   0  0  0  0  0  0  0  0  0  0  0  0
   15.0270   -1.7042   -8.9585 O   0  0  0  0  0  0  0  0  0  0  0  0
   12.7571   -1.4756   -8.3558 C   0  0  2  0  0  0  0  0  0  0  0  0
   12.5880   -1.3919   -6.8009 C   0  0  0  0  0  0  0  0  0  0  0  0
   11.7776   -1.8101   -9.4177 N   0  0  0  0  0  0  0  0  0  0  0  0
   11.4972   -0.9143  -10.6260 C   0  0  0  0  0  0  0  0  0  0  0  0
   12.0322    0.1496  -10.6784 O   0  0  0  0  0  0  0  0  0  0  0  0
   10.5431   -1.2634  -11.6731 C   0  0  1  0  0  0  0  0  0  0  0  0
    9.2028   -1.5975  -11.3070 C   0  0  0  0  0  0  0  0  0  0  0  0
    7.9997   -1.2391  -10.7668 C   0  0  0  0  0  0  0  0  0  0  0  0
    7.4556    0.1035  -10.5860 C   0  0  0  0  0  0  0  0  0  0  0  0
    6.1256    0.2226  -10.0141 C   0  0  0  0  0  0  0  0  0  0  0  0
    5.4496   -0.8988   -9.6506 C   0  0  0  0  0  0  0  0  0  0  0  0
    5.9479   -2.1730   -9.7998 C   0  0  0  0  0  0  0  0  0  0  0  0
    7.2271   -2.3521  -10.3452 C   0  0  0  0  0  0  0  0  0  0  0  0
   10.5486   -0.9784  -13.0383 N   0  0  0  0  0  0  0  0  0  0  0  0
   11.5864   -0.6171  -13.9657 C   0  0  0  0  0  0  0  0  0  0  0  0
   12.6717   -0.5142  -13.5640 O   0  0  0  0  0  0  0  0  0  0  0  0
   11.3641   -0.4161  -15.5287 C   0  0  2  0  0  0  0  0  0  0  0  0
   11.9684   -1.1689  -16.5395 C   0  0  0  0  0  0  0  0  0  0  0  0
   11.4595   -0.4842  -17.8850 C   0  0  0  0  0  0  0  0  0  0  0  0
   10.4488    0.6358  -17.5986 C   0  0  0  0  0  0  0  0  0  0  0  0
   10.5440    0.6966  -16.1588 N   0  0  0  0  0  0  0  0  0  0  0  0
   10.2116    1.8094  -15.5436 C   0  0  0  0  0  0  0  0  0  0  0  0
   10.9143    2.1154  -14.6811 O   0  0  0  0  0  0  0  0  0  0  0  0
    9.0263    2.5924  -15.7517 C   0  0  1  0  0  0  0  0  0  0  0  0
    7.9715    1.6699  -14.7180 C   0  0  0  0  0  0  0  0  0  0  0  0
    8.2203    2.5508  -13.5302 O   0  0  0  0  0  0  0  0  0  0  0  0
    8.4195    3.7688  -16.1415 N   0  0  0  0  0  0  0  0  0  0  0  0
    8.7381    5.1641  -15.9606 C   0  0  0  0  0  0  0  0  0  0  0  0
    9.7179    5.4533  -15.3680 O   0  0  0  0  0  0  0  0  0  0  0  0
    7.7692    6.2098  -16.4302 C   0  0  1  0  0  0  0  0  0  0  0  0
    8.1298    7.1172  -17.4986 C   0  0  0  0  0  0  0  0  0  0  0  0
    6.9137    7.8695  -18.1324 C   0  0  0  0  0  0  0  0  0  0  0  0
    7.4909    8.5266  -19.3641 C   0  0  0  0  0  0  0  0  0  0  0  0
    6.6526    9.4561  -19.9591 N   0  0  0  0  0  0  0  0  0  0  0  0
    8.5345    8.3213  -19.9488 O   0  0  0  0  0  0  0  0  0  0  0  0
    7.1863    5.4969  -16.4922 N   0  0  0  0  0  0  0  0  0  0  0  0
    6.9377    5.0835  -15.3036 C   0  0  0  0  0  0  0  0  0  0  0  0
    7.2268    5.3741  -14.1710 O   0  0  0  0  0  0  0  0  0  0  0  0
    6.2365    4.4542  -15.7534 C   0  0  1  0  0  0  0  0  0  0  0  0
    5.0942    3.5471  -15.3273 C   0  0  0  0  0  0  0  0  0  0  0  0
    5.1884    2.4796  -14.2956 C   0  0  0  0  0  0  0  0  0  0  0  0
    5.3948    2.8049  -12.9149 C   0  0  0  0  0  0  0  0  0  0  0  0
    5.3582    1.8065  -11.9860 C   0  0  0  0  0  0  0  0  0  0  0  0
    5.1906    0.4707  -12.4247 C   0  0  0  0  0  0  0  0  0  0  0  0
    5.1639    0.1347  -13.7994 C   0  0  0  0  0  0  0  0  0  0  0  0
    5.1758    1.1442  -14.7482 C   0  0  0  0  0  0  0  0  0  0  0  0
    6.4571    5.2140  -16.6124 N   0  0  0  0  0  0  0  0  0  0  0  0
    7.6828    5.2088  -17.3540 C   0  0  0  0  0  0  0  0  0  0  0  0
    8.5666    4.4042  -17.3106 O   0  0  0  0  0  0  0  0  0  0  0  0
    7.7694    6.2614  -18.3147 C   0  0  1  0  0  0  0  0  0  0  0  0
    8.5047    7.4369  -18.3803 C   0  0  0  0  0  0  0  0  0  0  0  0
    8.7439    8.4109  -18.6111 C   0  0  0  0  0  0  0  0  0  0  0  0
   10.0905    9.0238  -18.9398 C   0  0  0  0  0  0  0  0  0  0  0  0
   11.2397    8.4197  -19.1952 O   0  0  0  0  0  0  0  0  0  0  0  0
   10.2325   10.2733  -18.4348 O   0  0  0  0  0  0  0  0  0  0  0  0
    7.8508    5.8246  -18.1469 N   0  0  0  0  0  0  0  0  0  0  0  0
    7.5739    4.9819  -18.8933 C   0  0  0  0  0  0  0  0  0  0  0  0
    7.1021    4.6948  -20.0501 O   0  0  0  0  0  0  0  0  0  0  0  0
    7.8064    4.4901  -18.1765 C   0  0  2  0  0  0  0  0  0  0  0  0
    6.5083    4.3097  -17.5278 C   0  0  0  0  0  0  0  0  0  0  0  0
    5.4801    5.1688  -17.2052 C   0  0  0  0  0  0  0  0  0  0  0  0
    4.2326    5.2057  -16.5314 C   0  0  0  0  0  0  0  0  0  0  0  0
    4.3231    6.0979  -15.4592 O   0  0  0  0  0  0  0  0  0  0  0  0
    3.1826    4.6968  -16.7675 O   0  0  0  0  0  0  0  0  0  0  0  0
    9.3502    4.5486  -17.7563 N   0  0  0  0  0  0  0  0  0  0  0  0
   10.8457    4.7642  -18.6099 C   0  0  0  0  0  0  0  0  0  0  0  0
   10.9078    5.1459  -19.7777 O   0  0  0  0  0  0  0  0  0  0  0  0
   12.1701    4.4182  -17.9913 C   0  0  1  0  0  0  0  0  0  0  0  0
   12.8379    5.6001  -17.8709 C   0  0  0  0  0  0  0  0  0  0  0  0
   14.2309    5.9176  -17.2744 C   0  0  0  0  0  0  0  0  0  0  0  0
   14.9874    6.9399  -17.7158 O   0  0  0  0  0  0  0  0  0  0  0  0
   14.8165    5.5176  -16.1349 O   0  0  0  0  0  0  0  0  0  0  0  0
   11.6255    3.6262  -17.9090 N   0  0  0  0  0  0  0  0  0  0  0  0
   11.7845    2.3617  -18.8467 C   0  0  0  0  0  0  0  0  0  0  0  0
   12.8938    1.7938  -19.1628 O   0  0  0  0  0  0  0  0  0  0  0  0
   10.6732    1.5996  -19.0752 C   0  0  1  0  0  0  0  0  0  0  0  0
   10.5440    2.2312  -20.1696 N   0  0  0  0  0  0  0  0  0  0  0  0
    9.4691    2.4508  -20.9333 C   0  0  0  0  0  0  0  0  0  0  0  0
    8.2633    2.0597  -20.7040 O   0  0  0  0  0  0  0  0  0  0  0  0
    9.6128    3.4492  -22.0614 C   0  0  2  0  0  0  0  0  0  0  0  0
    9.1529    4.8032  -21.6581 C   0  0  0  0  0  0  0  0  0  0  0  0
   10.1039    6.0226  -22.2715 C   0  0  0  0  0  0  0  0  0  0  0  0
    9.7596    7.4177  -21.7020 C   0  0  0  0  0  0  0  0  0  0  0  0
   10.7792    8.1878  -21.2032 N   0  0  0  0  0  0  0  0  0  0  0  0
   11.1606    9.0324  -19.8356 C   0  0  0  0  0  0  0  0  0  0  0  0
   10.7999    8.7269  -18.5942 N   0  0  0  0  0  0  0  0  0  0  0  0
   12.1456    9.8763  -19.8945 N   0  0  0  0  0  0  0  0  0  0  0  0
    9.7478    3.3164  -23.3956 N   0  0  0  0  0  0  0  0  0  0  0  0
   10.3167    2.3744  -24.0096 C   0  0  0  0  0  0  0  0  0  0  0  0
   10.6795    1.2681  -23.4169 O   0  0  0  0  0  0  0  0  0  0  0  0
   10.5492    2.4793  -25.6755 C   0  0  2  0  0  0  0  0  0  0  0  0
    9.6404    1.8897  -26.5135 N   0  0  0  0  0  0  0  0  0  0  0  0
   12.0047    2.8196  -25.8542 C   0  0  0  0  0  0  0  0  0  0  0  0
   12.4292    4.1636  -26.3651 C   0  0  0  0  0  0  0  0  0  0  0  0
   12.1193    4.8289  -27.6276 C   0  0  0  0  0  0  0  0  0  0  0  0
   12.8370    5.8742  -27.9504 C   0  0  0  0  0  0  0  0  0  0  0  0
   13.8954    6.4686  -27.2407 C   0  0  0  0  0  0  0  0  0  0  0  0
   14.1521    5.9614  -26.0159 C   0  0  0  0  0  0  0  0  0  0  0  0
   13.4601    4.8456  -25.5109 C   0  0  0  0  0  0  0  0  0  0  0  0
   10.7301    0.4703  -18.3044 C   0  0  0  0  0  0  0  0  0  0  0  0
   11.9348   -0.3034  -17.7337 C   0  0  0  0  0  0  0  0  0  0  0  0
    9.4820   -0.3395  -17.8685 C   0  0  0  0  0  0  0  0  0  0  0  0
   18.0499    9.1107   -4.4223 C   0  0  0  0  0  0  0  0  0  0  0  0
   18.7433    9.3604   -3.5184 O   0  0  0  0  0  0  0  0  0  0  0  0
   17.2994   10.1900   -5.3207 N   0  0  0  0  0  0  0  0  0  0  0  0
   17.2824   11.7452   -5.2834 C   0  0  2  0  0  0  0  0  0  0  0  0
   16.0979   12.8922   -5.1830 C   0  0  0  0  0  0  0  0  0  0  0  0
   14.6053   12.7567   -5.1732 C   0  0  0  0  0  0  0  0  0  0  0  0
   13.7832   12.4934   -6.3826 C   0  0  0  0  0  0  0  0  0  0  0  0
   12.3463   12.5648   -6.3337 C   0  0  0  0  0  0  0  0  0  0  0  0
   11.6210   12.8737   -5.2816 C   0  0  0  0  0  0  0  0  0  0  0  0
   12.4098   13.0600   -4.0531 C   0  0  0  0  0  0  0  0  0  0  0  0
   13.8136   12.9872   -3.9846 C   0  0  0  0  0  0  0  0  0  0  0  0
   18.5952   12.4331   -5.5536 C   0  0  0  0  0  0  0  0  0  0  0  0
   19.3726   12.6763   -4.6257 O   0  0  0  0  0  0  0  0  0  0  0  0
   18.9952   12.7653   -7.1365 N   0  0  0  0  0  0  0  0  0  0  0  0
   20.2127   13.4413   -7.8824 C   0  0  2  0  0  0  0  0  0  0  0  0
   19.8377   14.4737   -8.6932 C   0  0  0  0  0  0  0  0  0  0  0  0
   18.8675   15.4208   -8.3437 C   0  0  0  0  0  0  0  0  0  0  0  0
   18.6292   16.5366   -9.2675 C   0  0  0  0  0  0  0  0  0  0  0  0
   18.3051   16.5527  -10.3562 N   0  0  0  0  0  0  0  0  0  0  0  0
   18.1865   17.7360  -11.1657 C   0  0  0  0  0  0  0  0  0  0  0  0
   18.9422   17.8762  -12.2757 N   0  0  0  0  0  0  0  0  0  0  0  0
   17.2126   18.7080  -10.8694 N   0  0  0  0  0  0  0  0  0  0  0  0
   21.7457   12.7171   -8.0064 C   0  0  0  0  0  0  0  0  0  0  0  0
   22.0935   12.3068   -6.9247 O   0  0  0  0  0  0  0  0  0  0  0  0
   22.5739   12.6785   -9.2851 N   0  0  0  0  0  0  0  0  0  0  0  0
   22.2389   13.4897  -10.4795 C   0  0  0  0  0  0  0  0  0  0  0  0
   23.5078   13.4975  -11.2994 C   0  0  0  0  0  0  0  0  0  0  0  0
   24.7215   12.6967  -10.6530 C   0  0  0  0  0  0  0  0  0  0  0  0
   24.1192   11.9997   -9.3684 C   0  0  2  0  0  0  0  0  0  0  0  0
   24.4999   10.5389   -9.4780 C   0  0  0  0  0  0  0  0  0  0  0  0
   24.2350    9.8038  -10.4760 O   0  0  0  0  0  0  0  0  0  0  0  0
   25.4702    9.9551   -8.3933 N   0  0  0  0  0  0  0  0  0  0  0  0
   25.9145    8.5950   -8.0897 C   0  0  1  0  0  0  0  0  0  0  0  0
   26.9657    7.5194   -8.3187 C   0  0  0  0  0  0  0  0  0  0  0  0
   26.8774    6.7665   -9.7737 C   0  0  0  0  0  0  0  0  0  0  0  0
   27.6160    5.2070   -9.8096 C   0  0  0  0  0  0  0  0  0  0  0  0
   27.3065    4.5108  -10.6321 N   0  0  0  0  0  0  0  0  0  0  0  0
   27.1686    3.0031  -10.8680 C   0  0  0  0  0  0  0  0  0  0  0  0
   27.9037    2.4038  -11.6750 N   0  0  0  0  0  0  0  0  0  0  0  0
   26.1239    2.3437  -10.4478 N   0  0  0  0  0  0  0  0  0  0  0  0
   25.2679    8.1366   -6.9979 C   0  0  0  0  0  0  0  0  0  0  0  0
   24.4913    7.1261   -7.1042 O   0  0  0  0  0  0  0  0  0  0  0  0
   25.5300    8.9742   -5.8572 N   0  0  0  0  0  0  0  0  0  0  0  0
   24.9876    8.6630   -4.6834 C   0  0  2  0  0  0  0  0  0  0  0  0
   24.6102    9.4829   -3.6530 C   0  0  0  0  0  0  0  0  0  0  0  0
   23.4090   10.1898   -3.8739 C   0  0  0  0  0  0  0  0  0  0  0  0
   23.1060   11.4636   -3.1089 N   0  0  0  0  0  0  0  0  0  0  0  0
   22.3202   10.0121   -4.8153 O   0  0  0  0  0  0  0  0  0  0  0  0
   26.2280    8.3394   -4.0170 C   0  0  0  0  0  0  0  0  0  0  0  0
   26.2981    7.3850   -3.1198 O   0  0  0  0  0  0  0  0  0  0  0  0
   27.4261    8.9466   -4.3652 N   0  0  0  0  0  0  0  0  0  0  0  0
   28.8564    8.8313   -3.9313 C   0  0  2  0  0  0  0  0  0  0  0  0
   29.7473    9.9467   -4.4365 C   0  0  0  0  0  0  0  0  0  0  0  0
   30.0351   10.3663   -5.6111 C   0  0  0  0  0  0  0  0  0  0  0  0
   29.8875   11.7675   -6.1198 C   0  0  0  0  0  0  0  0  0  0  0  0
   30.2441   11.9043   -7.4211 N   0  0  0  0  0  0  0  0  0  0  0  0
   29.3801   12.6772   -5.4888 O   0  0  0  0  0  0  0  0  0  0  0  0
   29.5633    7.6856   -3.4033 C   0  0  0  0  0  0  0  0  0  0  0  0
   29.1398    7.0396   -2.3582 O   0  0  0  0  0  0  0  0  0  0  0  0
   30.5539    7.1806   -4.1174 O   0  0  0  0  0  0  0  0  0  0  0  0
  1  2  1  0
  2  3  1  0
  2  4  1  0
  5  4  1  6
  5  6  1  0
  6  7  1  0
  7  8  2  0
  7  9  1  0
  9 10  1  1
 10 11  1  0
 11 12  2  0
 12 13  1  0
 13 14  2  0
 14 15  1  0
 15 16  2  0
  9 17  1  0
 17 18  1  0
 18 19  2  0
 18 20  1  0
 20 21  1  1
 21 22  1  0
 22 23  2  0
 23 24  1  0
 24 25  2  0
 25 26  1  0
 25 27  1  0
 27 28  2  0
 20 29  1  0
 29 30  1  0
 30 31  2  0
 30 32  1  0
 32 33  1  0
 33 34  1  0
 34 35  2  0
 34 36  1  0
 36 37  1  1
 37 38  1  0
 38 39  1  0
 39 40  1  0
 40 41  1  0
 41 42  2  0
 41 43  1  0
 36 44  1  0
 44 45  1  0
 45 46  2  0
 45 47  1  0
 47 48  1  1
 48 49  1  0
 47 50  1  0
 50 51  1  0
 51 52  2  0
 51 53  1  0
 53 54  1  1
 54 55  1  0
 55 56  1  0
 56 57  1  0
 56 58  2  0
 53 59  1  0
 59 60  1  0
 60 61  2  0
 60 62  1  0
 62 63  1  6
 63 64  1  0
 62 65  1  0
 65 66  1  0
 66 67  2  0
 66 68  1  0
 68 69  1  1
 68 70  1  0
 70 71  1  0
 71 72  2  0
 71 73  1  0
 73 74  1  6
 74 75  1  0
 75 76  2  0
 76 77  1  0
 77 78  2  0
 78 79  1  0
 79 80  2  0
 73 81  1  0
 81 82  1  0
 82 83  2  0
 84 82  1  1
 84 85  1  0
 85 86  1  0
 86 87  1  0
 87 88  1  0
 88 89  1  0
 89 90  2  0
 89 91  1  0
 91 92  1  6
 92 93  1  0
 91 94  1  0
 94 95  1  0
 95 96  2  0
 95 97  1  0
 97 98  1  1
 98 99  1  0
 99100  1  0
100101  1  0
100102  2  0
 97103  1  0
103104  1  0
104105  2  0
104106  1  0
106107  1  6
107108  1  0
108109  2  0
109110  1  0
110111  2  0
111112  1  0
112113  2  0
106114  1  0
114115  1  0
115116  2  0
115117  1  0
117118  1  6
118119  1  0
119120  1  0
120121  2  0
120122  1  0
117123  1  0
123124  1  0
124125  2  0
124126  1  0
126127  1  1
127128  1  0
128129  1  0
129130  2  0
129131  1  0
126132  1  0
132133  1  0
133134  2  0
133135  1  0
135136  1  6
136137  1  0
137138  2  0
137139  1  0
135140  1  0
140141  1  0
141142  2  0
141143  1  0
143144  1  6
144145  1  0
145146  2  0
145147  1  0
147148  1  6
148149  1  0
149150  1  0
150151  1  0
151152  1  0
152153  2  0
152154  1  0
147155  1  0
155156  1  0
156157  2  0
156158  1  0
158159  1  1
158160  1  0
160161  1  0
161162  2  0
162163  1  0
163164  2  0
164165  1  0
165166  2  0
143167  1  0
167168  1  0
167169  1  0
  5170  1  0
170171  2  0
170172  1  0
172173  1  0
173174  1  1
174175  1  0
175176  2  0
176177  1  0
177178  2  0
178179  1  0
179180  2  0
173181  1  0
181182  2  0
181183  1  0
183184  1  0
184185  1  1
185186  1  0
186187  1  0
187188  1  0
188189  1  0
189190  2  0
189191  1  0
184192  1  0
192193  2  0
192194  1  0
194195  1  0
195196  1  0
196197  1  0
197198  1  0
198199  1  1
199200  2  0
199201  1  0
201202  1  0
202203  1  1
203204  1  0
204205  1  0
205206  1  0
206207  1  0
207208  2  0
207209  1  0
202210  1  0
210211  2  0
210212  1  0
212213  1  0
213214  1  6
214215  1  0
215216  1  0
215217  2  0
213218  1  0
218219  2  0
218220  1  0
220221  1  0
221222  1  1
222223  1  0
223224  1  0
224225  1  0
224226  2  0
221227  1  0
227228  2  0
227229  1  0
 16 11  1  0
 28 22  1  0
 80 75  1  0
 88 84  1  0
113108  1  0
166161  1  0
180175  1  0
198194  1  0
M  END
$$$$
