
     RDKit          3D

 27 28  0  0  0  0  0  0  0  0999 V2000
   -3.5249   -2.5968    1.0400 N   0  0  0  0  0  0  0  0  0  0  0  0
   -4.2726   -3.0149    2.1763 C   0  0  0  0  0  0  0  0  0  0  0  0
   -3.7643   -3.6354    3.0436 O   0  0  0  0  0  0  0  0  0  0  0  0
   -5.6684   -2.6738    2.2424 C   0  0  0  0  0  0  0  0  0  0  0  0
   -6.4037   -3.1708    3.3724 C   0  0  0  0  0  0  0  0  0  0  0  0
   -7.5241   -2.3648    3.9550 C   0  0  1  0  0  0  0  0  0  0  0  0
   -8.4178   -1.6705    3.2188 N   0  0  0  0  0  0  0  0  0  0  0  0
   -7.7249   -2.4800    5.4054 C   0  0  0  0  0  0  0  0  0  0  0  0
   -8.3008   -3.4943    5.7323 O   0  0  0  0  0  0  0  0  0  0  0  0
   -7.3582   -1.4090    6.3128 N   0  0  0  0  0  0  0  0  0  0  0  0
   -7.5707   -1.2573    7.6960 C   0  0  2  0  0  0  0  0  0  0  0  0
   -6.4893   -0.9630    8.5103 C   0  0  0  0  0  0  0  0  0  0  0  0
   -5.9987    0.3844    8.2038 C   0  0  0  0  0  0  0  0  0  0  0  0
   -6.0976    1.5167    9.0550 C   0  0  0  0  0  0  0  0  0  0  0  0
   -5.4167    2.5941    8.2840 N   0  0  0  0  0  0  0  0  0  0  0  0
   -4.9844    2.1007    7.0566 C   0  0  0  0  0  0  0  0  0  0  0  0
   -5.3434    0.6805    7.0384 N   0  0  0  0  0  0  0  0  0  0  0  0
   -8.8571   -1.5628    8.3657 C   0  0  0  0  0  0  0  0  0  0  0  0
   -8.9117   -2.6865    8.8352 O   0  0  0  0  0  0  0  0  0  0  0  0
   -9.9300   -0.6059    8.5171 N   0  0  0  0  0  0  0  0  0  0  0  0
  -10.5196    0.3618    7.6487 C   0  0  0  0  0  0  0  0  0  0  0  0
  -11.8854    0.7613    8.4526 C   0  0  0  0  0  0  0  0  0  0  0  0
  -11.8091    0.0729    9.7574 C   0  0  0  0  0  0  0  0  0  0  0  0
  -10.6427   -0.7040    9.7468 C   0  0  2  0  0  0  0  0  0  0  0  0
  -10.1367   -1.5152   10.8927 C   0  0  0  0  0  0  0  0  0  0  0  0
  -11.0212   -1.7921   11.8332 O   0  0  0  0  0  0  0  0  0  0  0  0
   -8.9738   -1.9284   10.9560 O   0  0  0  0  0  0  0  0  0  0  0  0
  1  2  1  0
  2  3  2  0
  2  4  1  0
  4  5  1  0
  5  6  1  0
  6  7  1  1
  6  8  1  0
  8  9  2  0
  8 10  1  0
 10 11  1  0
 11 12  1  6
 12 13  1  0
 13 14  2  0
 14 15  1  0
 15 16  1  0
 16 17  2  0
 11 18  1  0
 18 19  2  0
 18 20  1  0
 20 21  1  0
 21 22  1  0
 22 23  1  0
 23 24  1  0
 24 25  1  6
 25 26  2  0
 25 27  1  0
 17 13  1  0
 24 20  1  0
M  END
$$$$
