
     RDKit          3D

115119  0  0  0  0  0  0  0  0999 V2000
   23.6570   13.1807   -7.3025 C   0  0  0  0  0  0  0  0  0  0  0  0
   24.9996   12.7674   -7.0669 C   0  0  1  0  0  0  0  0  0  0  0  0
   25.9275   13.1434   -6.2802 N   0  0  0  0  0  0  0  0  0  0  0  0
   24.9345   11.2847   -7.2574 C   0  0  0  0  0  0  0  0  0  0  0  0
   24.4420   10.5387   -6.3685 O   0  0  0  0  0  0  0  0  0  0  0  0
   25.3100   10.7354   -8.4685 N   0  0  0  0  0  0  0  0  0  0  0  0
   25.5292    9.3070   -8.4811 C   0  0  0  0  0  0  0  0  0  0  0  0
   24.8875    8.3575   -9.5895 C   0  0  0  0  0  0  0  0  0  0  0  0
   25.6951    7.5968  -10.0245 O   0  0  0  0  0  0  0  0  0  0  0  0
   23.5456    8.4109  -10.0418 N   0  0  0  0  0  0  0  0  0  0  0  0
   22.6093    7.7799  -10.9552 C   0  0  2  0  0  0  0  0  0  0  0  0
   21.3337    8.3317  -11.1691 C   0  0  0  0  0  0  0  0  0  0  0  0
   20.5990    9.0820   -9.6990 S   0  0  0  0  0  0  0  0  0  0  0  0
   22.6549    6.4917  -11.7358 C   0  0  0  0  0  0  0  0  0  0  0  0
   23.1309    6.5758  -12.8676 O   0  0  0  0  0  0  0  0  0  0  0  0
   21.9259    5.3714  -11.1037 N   0  0  0  0  0  0  0  0  0  0  0  0
   21.6940    4.2234  -11.3533 C   0  0  1  0  0  0  0  0  0  0  0  0
   21.7039    2.9643  -11.9543 C   0  0  0  0  0  0  0  0  0  0  0  0
   22.8911    2.6519  -12.8873 C   0  0  0  0  0  0  0  0  0  0  0  0
   22.9691    1.4158  -13.4552 C   0  0  0  0  0  0  0  0  0  0  0  0
   23.1019    0.7125  -14.3886 C   0  0  0  0  0  0  0  0  0  0  0  0
   23.1395   -0.2033  -15.3062 N   0  0  0  0  0  0  0  0  0  0  0  0
   20.8835    4.2268  -10.2736 C   0  0  0  0  0  0  0  0  0  0  0  0
   20.8880    3.4829   -9.3575 O   0  0  0  0  0  0  0  0  0  0  0  0
   20.0736    5.2555  -10.2941 N   0  0  0  0  0  0  0  0  0  0  0  0
   19.2961    5.3648   -9.3983 C   0  0  1  0  0  0  0  0  0  0  0  0
   19.0532    6.3740   -8.4221 C   0  0  0  0  0  0  0  0  0  0  0  0
   19.9697    7.5387   -8.3786 C   0  0  0  0  0  0  0  0  0  0  0  0
   20.1804    8.2348   -7.2630 N   0  0  0  0  0  0  0  0  0  0  0  0
   20.6293    7.8752   -9.3463 O   0  0  0  0  0  0  0  0  0  0  0  0
   18.0633    4.8942  -10.0805 C   0  0  0  0  0  0  0  0  0  0  0  0
   17.0976    5.4569  -10.4585 O   0  0  0  0  0  0  0  0  0  0  0  0
   18.1566    3.7418  -10.3918 N   0  0  0  0  0  0  0  0  0  0  0  0
   17.1774    2.9285  -11.0889 C   0  0  2  0  0  0  0  0  0  0  0  0
   17.7713    1.7166  -11.7670 C   0  0  0  0  0  0  0  0  0  0  0  0
   18.4695    0.6660  -11.2463 C   0  0  0  0  0  0  0  0  0  0  0  0
   19.5278    0.8021  -10.3012 C   0  0  0  0  0  0  0  0  0  0  0  0
   20.2092   -0.3952   -9.8148 C   0  0  0  0  0  0  0  0  0  0  0  0
   19.8139   -1.6507  -10.2479 C   0  0  0  0  0  0  0  0  0  0  0  0
   18.7178   -1.7873  -11.1319 C   0  0  0  0  0  0  0  0  0  0  0  0
   18.0207   -0.6288  -11.5438 C   0  0  0  0  0  0  0  0  0  0  0  0
   16.3279    3.6804  -11.4746 C   0  0  0  0  0  0  0  0  0  0  0  0
   16.5489    4.5609  -12.3323 O   0  0  0  0  0  0  0  0  0  0  0  0
   14.9790    3.3866  -10.7365 N   0  0  0  0  0  0  0  0  0  0  0  0
   14.0522    4.1265  -10.8766 C   0  0  1  0  0  0  0  0  0  0  0  0
   12.6820    4.1315  -11.5157 C   0  0  0  0  0  0  0  0  0  0  0  0
   12.7878    4.3947  -12.9757 C   0  0  0  0  0  0  0  0  0  0  0  0
   13.3335    5.5780  -13.5566 C   0  0  0  0  0  0  0  0  0  0  0  0
   13.3104    5.6975  -14.8602 C   0  0  0  0  0  0  0  0  0  0  0  0
   12.7849    4.7531  -15.6753 C   0  0  0  0  0  0  0  0  0  0  0  0
   12.3627    3.5409  -15.1461 C   0  0  0  0  0  0  0  0  0  0  0  0
   12.3917    3.3485  -13.8259 C   0  0  0  0  0  0  0  0  0  0  0  0
   13.7145    4.2820   -9.4160 C   0  0  0  0  0  0  0  0  0  0  0  0
   13.6412    5.3875   -8.9414 O   0  0  0  0  0  0  0  0  0  0  0  0
   13.2813    3.0839   -8.5479 N   0  0  0  0  0  0  0  0  0  0  0  0
   12.9061    3.1011   -7.2259 C   0  0  2  0  0  0  0  0  0  0  0  0
   12.0630    3.8961   -6.8118 C   0  0  0  0  0  0  0  0  0  0  0  0
   11.4398    3.6062   -5.5226 C   0  0  0  0  0  0  0  0  0  0  0  0
   12.0753    3.3942   -4.3063 C   0  0  0  0  0  0  0  0  0  0  0  0
   11.0886    3.1994   -3.3393 N   0  0  0  0  0  0  0  0  0  0  0  0
    9.8409    3.3004   -4.0173 C   0  0  0  0  0  0  0  0  0  0  0  0
    8.5983    3.2158   -3.4310 C   0  0  0  0  0  0  0  0  0  0  0  0
    7.4568    3.3481   -4.1565 C   0  0  0  0  0  0  0  0  0  0  0  0
    7.6275    3.5198   -5.5419 C   0  0  0  0  0  0  0  0  0  0  0  0
    8.7982    3.6002   -6.1124 C   0  0  0  0  0  0  0  0  0  0  0  0
   10.0218    3.5213   -5.3054 C   0  0  0  0  0  0  0  0  0  0  0  0
   13.5362    2.1531   -6.2517 C   0  0  0  0  0  0  0  0  0  0  0  0
   14.5130    2.3400   -5.7066 O   0  0  0  0  0  0  0  0  0  0  0  0
   12.8154    0.9495   -5.9973 N   0  0  0  0  0  0  0  0  0  0  0  0
   13.1134   -0.1798   -5.1549 C   0  0  2  0  0  0  0  0  0  0  0  0
   12.4625   -1.3690   -5.3338 C   0  0  0  0  0  0  0  0  0  0  0  0
   11.9699   -1.3859   -6.8249 C   0  0  0  0  0  0  0  0  0  0  0  0
   11.4355   -2.5309   -7.1365 C   0  0  0  0  0  0  0  0  0  0  0  0
   10.7296   -3.0014   -8.0765 C   0  0  0  0  0  0  0  0  0  0  0  0
   10.6508   -3.4900   -9.2702 N   0  0  0  0  0  0  0  0  0  0  0  0
   14.0963   -0.2010   -4.0191 C   0  0  0  0  0  0  0  0  0  0  0  0
   13.8523    0.1999   -2.9523 O   0  0  0  0  0  0  0  0  0  0  0  0
   15.2446   -0.8200   -4.3064 N   0  0  0  0  0  0  0  0  0  0  0  0
   16.2545   -1.1090   -3.3832 C   0  0  1  0  0  0  0  0  0  0  0  0
   15.8539   -2.2193   -2.4386 C   0  0  0  0  0  0  0  0  0  0  0  0
   15.9705   -2.0845   -1.3235 O   0  0  0  0  0  0  0  0  0  0  0  0
   15.3444   -3.4775   -2.9534 N   0  0  0  0  0  0  0  0  0  0  0  0
   14.7467   -4.7209   -2.3902 C   0  0  2  0  0  0  0  0  0  0  0  0
   14.9548   -5.9886   -2.8725 C   0  0  0  0  0  0  0  0  0  0  0  0
   15.8911   -6.0599   -4.0755 C   0  0  0  0  0  0  0  0  0  0  0  0
   15.8798   -7.2729   -4.8052 C   0  0  0  0  0  0  0  0  0  0  0  0
   16.5546   -7.6081   -5.9043 C   0  0  0  0  0  0  0  0  0  0  0  0
   17.4740   -6.6233   -6.4555 C   0  0  0  0  0  0  0  0  0  0  0  0
   17.5376   -5.3881   -5.8295 C   0  0  0  0  0  0  0  0  0  0  0  0
   16.7762   -5.0623   -4.5922 C   0  0  0  0  0  0  0  0  0  0  0  0
   13.8008   -4.6358   -1.2285 C   0  0  0  0  0  0  0  0  0  0  0  0
   14.1782   -4.8314   -0.1306 O   0  0  0  0  0  0  0  0  0  0  0  0
   12.4467   -4.3273   -1.4112 N   0  0  0  0  0  0  0  0  0  0  0  0
   11.3503   -4.2078   -0.5077 C   0  0  1  0  0  0  0  0  0  0  0  0
   11.6144   -4.0504    0.8790 C   0  0  0  0  0  0  0  0  0  0  0  0
   12.0562   -2.9641    1.1661 O   0  0  0  0  0  0  0  0  0  0  0  0
   11.1861   -5.1661    1.7478 N   0  0  0  0  0  0  0  0  0  0  0  0
   11.5077   -5.1914    2.9870 C   0  0  1  0  0  0  0  0  0  0  0  0
   10.5330   -5.0912    4.1685 C   0  0  0  0  0  0  0  0  0  0  0  0
    9.5411   -4.6956    4.6394 O   0  0  0  0  0  0  0  0  0  0  0  0
   12.3401   -6.3192    3.1711 C   0  0  0  0  0  0  0  0  0  0  0  0
   13.4766   -6.2311    2.8964 O   0  0  0  0  0  0  0  0  0  0  0  0
   11.8914   -7.5418    3.8060 N   0  0  0  0  0  0  0  0  0  0  0  0
   12.7901   -8.6374    4.2891 C   0  0  1  0  0  0  0  0  0  0  0  0
   12.7314   -8.3468    5.9081 C   0  0  0  0  0  0  0  0  0  0  0  0
   12.9439   -6.6250    6.3319 S   0  0  0  0  0  0  0  0  0  0  0  0
   12.9290   -9.9702    4.1478 C   0  0  0  0  0  0  0  0  0  0  0  0
   12.0312  -10.6500    3.5540 O   0  0  0  0  0  0  0  0  0  0  0  0
   14.0686  -10.5027    4.5216 O   0  0  0  0  0  0  0  0  0  0  0  0
    9.9712   -4.0988   -0.9627 C   0  0  2  0  0  0  0  0  0  0  0  0
    9.5581   -5.2974   -1.7750 C   0  0  0  0  0  0  0  0  0  0  0  0
    9.3850   -3.0564   -0.8222 O   0  0  0  0  0  0  0  0  0  0  0  0
   17.4919   -0.3939   -3.5445 C   0  0  1  0  0  0  0  0  0  0  0  0
   18.7149   -1.0539   -3.8656 C   0  0  0  0  0  0  0  0  0  0  0  0
   17.2413    0.9095   -3.5768 O   0  0  0  0  0  0  0  0  0  0  0  0
  2  1  1  6
  2  3  1  0
  2  4  1  0
  4  5  2  0
  4  6  1  0
  6  7  1  0
  7  8  1  0
  8  9  2  0
  8 10  1  0
 10 11  1  0
 11 12  1  6
 12 13  1  0
 11 14  1  0
 14 15  2  0
 14 16  1  0
 16 17  1  0
 17 18  1  1
 18 19  1  0
 19 20  1  0
 20 21  1  0
 21 22  1  0
 17 23  1  0
 23 24  2  0
 23 25  1  0
 25 26  1  0
 26 27  1  6
 27 28  1  0
 28 29  1  0
 28 30  2  0
 26 31  1  0
 31 32  2  0
 31 33  1  0
 33 34  1  0
 34 35  1  1
 35 36  1  0
 36 37  2  0
 37 38  1  0
 38 39  2  0
 39 40  1  0
 40 41  2  0
 34 42  1  0
 42 43  2  0
 42 44  1  0
 44 45  1  0
 45 46  1  6
 46 47  1  0
 47 48  2  0
 48 49  1  0
 49 50  2  0
 50 51  1  0
 51 52  2  0
 45 53  1  0
 53 54  2  0
 53 55  1  0
 55 56  1  0
 56 57  1  6
 57 58  1  0
 58 59  2  0
 59 60  1  0
 60 61  1  0
 61 62  2  0
 62 63  1  0
 63 64  2  0
 64 65  1  0
 65 66  2  0
 56 67  1  0
 67 68  2  0
 67 69  1  0
 69 70  1  0
 70 71  1  6
 71 72  1  0
 72 73  1  0
 73 74  1  0
 74 75  1  0
 70 76  1  0
 76 77  2  0
 76 78  1  0
 79 78  1  1
 79 80  1  0
 80 81  2  0
 80 82  1  0
 82 83  1  0
 83 84  1  1
 84 85  1  0
 85 86  2  0
 86 87  1  0
 87 88  2  0
 88 89  1  0
 89 90  2  0
 83 91  1  0
 91 92  2  0
 91 93  1  0
 94 93  1  1
 94 95  1  0
 95 96  2  0
 95 97  1  0
 97 98  1  0
 98 99  1  1
 99100  1  0
 98101  1  0
101102  2  0
101103  1  0
103104  1  0
104105  1  1
105106  1  0
104107  1  0
107108  2  0
107109  1  0
 94110  1  0
110111  1  1
110112  1  0
 79113  1  0
113114  1  6
113115  1  0
 41 36  1  0
 52 47  1  0
 66 58  1  0
 90 85  1  0
 66 61  1  0
M  END
$$$$
