
     RDKit          3D

 27 28  0  0  0  0  0  0  0  0999 V2000
   -2.4471   -3.8895    3.0693 N   0  0  0  0  0  0  0  0  0  0  0  0
   -3.5144   -3.0610    2.9824 C   0  0  0  0  0  0  0  0  0  0  0  0
   -3.5014   -2.1501    2.1262 O   0  0  0  0  0  0  0  0  0  0  0  0
   -4.6888   -3.2497    3.9326 C   0  0  0  0  0  0  0  0  0  0  0  0
   -5.8497   -3.5665    3.3034 C   0  0  0  0  0  0  0  0  0  0  0  0
   -7.1274   -2.6269    3.5677 C   0  0  1  0  0  0  0  0  0  0  0  0
   -7.8018   -2.1306    2.5778 N   0  0  0  0  0  0  0  0  0  0  0  0
   -7.7298   -2.6029    4.9010 C   0  0  0  0  0  0  0  0  0  0  0  0
   -8.2724   -3.6638    5.1892 O   0  0  0  0  0  0  0  0  0  0  0  0
   -7.7091   -1.3321    5.5933 N   0  0  0  0  0  0  0  0  0  0  0  0
   -8.1776   -1.0438    6.8236 C   0  0  2  0  0  0  0  0  0  0  0  0
   -7.2383   -1.0832    7.7286 C   0  0  0  0  0  0  0  0  0  0  0  0
   -6.7958    0.2580    8.1500 C   0  0  0  0  0  0  0  0  0  0  0  0
   -7.0032    0.7355    9.4287 C   0  0  0  0  0  0  0  0  0  0  0  0
   -6.3751    1.9996    9.5326 N   0  0  0  0  0  0  0  0  0  0  0  0
   -5.8179    2.2612    8.2697 C   0  0  0  0  0  0  0  0  0  0  0  0
   -6.0594    1.1729    7.3739 N   0  0  0  0  0  0  0  0  0  0  0  0
   -9.6701   -1.0866    7.1222 C   0  0  0  0  0  0  0  0  0  0  0  0
  -10.0053   -1.9303    7.9550 O   0  0  0  0  0  0  0  0  0  0  0  0
  -10.6802   -0.1602    6.5739 N   0  0  0  0  0  0  0  0  0  0  0  0
  -10.7480    0.7293    5.4446 C   0  0  0  0  0  0  0  0  0  0  0  0
  -12.3316    1.2241    5.4780 C   0  0  0  0  0  0  0  0  0  0  0  0
  -12.9900    0.5815    6.5980 C   0  0  0  0  0  0  0  0  0  0  0  0
  -11.9676   -0.1447    7.2490 C   0  0  2  0  0  0  0  0  0  0  0  0
  -12.1983   -0.8051    8.5957 C   0  0  0  0  0  0  0  0  0  0  0  0
  -12.0642   -2.0327    8.6604 O   0  0  0  0  0  0  0  0  0  0  0  0
  -12.5731   -0.0234    9.6104 O   0  0  0  0  0  0  0  0  0  0  0  0
  1  2  1  0
  2  3  2  0
  2  4  1  0
  4  5  1  0
  5  6  1  0
  6  7  1  1
  6  8  1  0
  8  9  2  0
  8 10  1  0
 10 11  1  0
 11 12  1  6
 12 13  1  0
 13 14  2  0
 14 15  1  0
 15 16  1  0
 16 17  2  0
 11 18  1  0
 18 19  2  0
 18 20  1  0
 20 21  1  0
 21 22  1  0
 22 23  1  0
 23 24  1  0
 24 25  1  6
 25 26  2  0
 25 27  1  0
 17 13  1  0
 24 20  1  0
M  END
$$$$
