
     RDKit          3D

 77 81  0  0  0  0  0  0  0  0999 V2000
   11.0833   -3.6906  -10.6638 C   0  0  0  0  0  0  0  0  0  0  0  0
   11.9900   -2.5943  -10.7586 C   0  0  2  0  0  0  0  0  0  0  0  0
   11.8574   -1.1180  -10.4814 N   0  0  0  0  0  0  0  0  0  0  0  0
   11.7347   -0.6451   -9.2184 C   0  0  0  0  0  0  0  0  0  0  0  0
   11.8662   -1.3928   -8.1482 O   0  0  0  0  0  0  0  0  0  0  0  0
   11.4902    0.6976   -9.1372 C   0  0  1  0  0  0  0  0  0  0  0  0
    9.9080    0.6752   -8.9659 C   0  0  0  0  0  0  0  0  0  0  0  0
    8.8567    1.5762   -8.6478 C   0  0  0  0  0  0  0  0  0  0  0  0
    8.4391    2.5815   -9.5656 C   0  0  0  0  0  0  0  0  0  0  0  0
    7.3379    3.3823   -9.2307 C   0  0  0  0  0  0  0  0  0  0  0  0
    6.6182    3.2277   -8.0630 C   0  0  0  0  0  0  0  0  0  0  0  0
    7.0739    2.2965   -7.0793 C   0  0  0  0  0  0  0  0  0  0  0  0
    8.1836    1.5208   -7.3956 C   0  0  0  0  0  0  0  0  0  0  0  0
   12.5969    1.5738   -8.4466 N   0  0  0  0  0  0  0  0  0  0  0  0
   14.0548    1.8295   -8.9000 C   0  0  0  0  0  0  0  0  0  0  0  0
   14.4258    1.3362   -9.8391 O   0  0  0  0  0  0  0  0  0  0  0  0
   15.1059    2.6571   -8.1139 C   0  0  2  0  0  0  0  0  0  0  0  0
   15.1342    2.3195   -6.8092 C   0  0  0  0  0  0  0  0  0  0  0  0
   15.5903    2.6465   -5.8020 C   0  0  0  0  0  0  0  0  0  0  0  0
   16.9134    2.3316   -5.3210 C   0  0  0  0  0  0  0  0  0  0  0  0
   17.2237    1.0557   -5.0546 N   0  0  0  0  0  0  0  0  0  0  0  0
   17.6879    3.2647   -5.2473 O   0  0  0  0  0  0  0  0  0  0  0  0
   15.4937    3.9437   -8.8064 N   0  0  0  0  0  0  0  0  0  0  0  0
   16.8761    4.2926   -9.3686 C   0  0  0  0  0  0  0  0  0  0  0  0
   17.8738    3.4910   -9.1359 O   0  0  0  0  0  0  0  0  0  0  0  0
   17.2541    5.8185  -10.1751 C   0  0  0  0  0  0  0  0  0  0  0  0
   17.5310    5.6097  -11.4861 N   0  0  0  0  0  0  0  0  0  0  0  0
   18.0996    6.8318  -12.3681 C   0  0  0  0  0  0  0  0  0  0  0  0
   18.4848    7.9836  -12.0511 O   0  0  0  0  0  0  0  0  0  0  0  0
   18.3676    6.5278  -13.7215 C   0  0  1  0  0  0  0  0  0  0  0  0
   19.2105    5.4036  -14.0226 C   0  0  0  0  0  0  0  0  0  0  0  0
   18.6730    5.1172  -15.5144 C   0  0  0  0  0  0  0  0  0  0  0  0
   17.8351    6.2365  -15.9777 C   0  0  0  0  0  0  0  0  0  0  0  0
   17.7160    7.2509  -14.9574 N   0  0  0  0  0  0  0  0  0  0  0  0
   17.3101    8.6595  -15.2321 C   0  0  0  0  0  0  0  0  0  0  0  0
   17.8025    9.5366  -14.5194 O   0  0  0  0  0  0  0  0  0  0  0  0
   16.2808    9.2325  -16.2788 C   0  0  2  0  0  0  0  0  0  0  0  0
   16.3923    8.9606  -17.5822 C   0  0  0  0  0  0  0  0  0  0  0  0
   15.0356    8.9018  -18.0311 C   0  0  0  0  0  0  0  0  0  0  0  0
   13.8342    9.7476  -17.7696 C   0  0  0  0  0  0  0  0  0  0  0  0
   12.5605    9.4019  -18.3850 C   0  0  0  0  0  0  0  0  0  0  0  0
   12.4972    8.2229  -19.1526 C   0  0  0  0  0  0  0  0  0  0  0  0
   13.6668    7.4528  -19.4291 C   0  0  0  0  0  0  0  0  0  0  0  0
   14.8619    7.7531  -18.7869 C   0  0  0  0  0  0  0  0  0  0  0  0
   15.7255   10.4690  -16.1165 N   0  0  0  0  0  0  0  0  0  0  0  0
   14.4944   11.0697  -16.7560 C   0  0  0  0  0  0  0  0  0  0  0  0
   13.8130   10.4518  -17.5849 O   0  0  0  0  0  0  0  0  0  0  0  0
   14.0040   12.4539  -16.6292 C   0  0  1  0  0  0  0  0  0  0  0  0
   14.8003   13.4428  -17.1783 N   0  0  0  0  0  0  0  0  0  0  0  0
   12.5707   12.7879  -16.2247 C   0  0  0  0  0  0  0  0  0  0  0  0
   11.7706   12.9065  -15.1403 C   0  0  0  0  0  0  0  0  0  0  0  0
   10.6271   12.0393  -14.9312 C   0  0  0  0  0  0  0  0  0  0  0  0
    9.7069   12.2428  -13.9342 C   0  0  0  0  0  0  0  0  0  0  0  0
    9.7777   13.3045  -12.9597 C   0  0  0  0  0  0  0  0  0  0  0  0
    8.7428   13.5454  -11.9597 O   0  0  0  0  0  0  0  0  0  0  0  0
   10.9196   14.1236  -13.0856 C   0  0  0  0  0  0  0  0  0  0  0  0
   11.8689   13.9965  -14.0753 C   0  0  0  0  0  0  0  0  0  0  0  0
   13.2237   -3.0498  -11.5619 C   0  0  0  0  0  0  0  0  0  0  0  0
   14.1726   -3.2404  -10.9621 O   0  0  0  0  0  0  0  0  0  0  0  0
   13.2010   -3.2264  -13.1226 N   0  0  0  0  0  0  0  0  0  0  0  0
   14.1993   -3.7280  -14.1581 C   0  0  2  0  0  0  0  0  0  0  0  0
   14.0179   -3.4935  -15.6497 C   0  0  0  0  0  0  0  0  0  0  0  0
   14.0964   -2.2197  -16.3768 C   0  0  0  0  0  0  0  0  0  0  0  0
   15.2446   -1.4520  -16.5905 C   0  0  0  0  0  0  0  0  0  0  0  0
   15.1758   -0.2395  -17.4542 C   0  0  0  0  0  0  0  0  0  0  0  0
   14.0161    0.1209  -18.0161 C   0  0  0  0  0  0  0  0  0  0  0  0
   12.8817   -0.5989  -17.8173 C   0  0  0  0  0  0  0  0  0  0  0  0
   12.8928   -1.7840  -16.9554 C   0  0  0  0  0  0  0  0  0  0  0  0
   15.1646   -4.6325  -13.7823 C   0  0  0  0  0  0  0  0  0  0  0  0
   14.9991   -5.3175  -12.7681 O   0  0  0  0  0  0  0  0  0  0  0  0
   16.3056   -4.8502  -14.6029 N   0  0  0  0  0  0  0  0  0  0  0  0
   17.3514   -5.6899  -14.4185 C   0  0  1  0  0  0  0  0  0  0  0  0
   18.1635   -6.0002  -15.5817 C   0  0  0  0  0  0  0  0  0  0  0  0
   18.1823   -5.1336  -16.6866 O   0  0  0  0  0  0  0  0  0  0  0  0
   17.9604   -6.2311  -13.2120 C   0  0  0  0  0  0  0  0  0  0  0  0
   18.9090   -5.6119  -12.7789 O   0  0  0  0  0  0  0  0  0  0  0  0
   17.2869   -7.0493  -12.5417 O   0  0  0  0  0  0  0  0  0  0  0  0
  2  1  1  6
  2  3  1  0
  3  4  1  0
  4  5  2  0
  4  6  1  0
  6  7  1  6
  7  8  1  0
  8  9  2  0
  9 10  1  0
 10 11  2  0
 11 12  1  0
 12 13  2  0
  6 14  1  0
 14 15  1  0
 15 16  2  0
 15 17  1  0
 17 18  1  1
 18 19  1  0
 19 20  1  0
 20 21  1  0
 20 22  2  0
 17 23  1  0
 23 24  1  0
 24 25  2  0
 24 26  1  0
 26 27  1  0
 27 28  1  0
 28 29  2  0
 30 28  1  6
 30 31  1  0
 31 32  1  0
 32 33  1  0
 33 34  1  0
 34 35  1  0
 35 36  2  0
 35 37  1  0
 37 38  1  6
 38 39  1  0
 39 40  2  0
 40 41  1  0
 41 42  2  0
 42 43  1  0
 43 44  2  0
 37 45  1  0
 45 46  1  0
 46 47  2  0
 46 48  1  0
 48 49  1  6
 48 50  1  0
 50 51  1  0
 51 52  2  0
 52 53  1  0
 53 54  2  0
 54 55  1  0
 54 56  1  0
 56 57  2  0
  2 58  1  0
 58 59  2  0
 58 60  1  0
 60 61  1  0
 61 62  1  1
 62 63  1  0
 63 64  2  0
 64 65  1  0
 65 66  2  0
 66 67  1  0
 67 68  2  0
 61 69  1  0
 69 70  2  0
 69 71  1  0
 71 72  1  0
 72 73  1  1
 73 74  1  0
 72 75  1  0
 75 76  2  0
 75 77  1  0
 13  8  1  0
 34 30  1  0
 44 39  1  0
 57 51  1  0
 68 63  1  0
M  END
$$$$
