
     RDKit          3D

140146  0  0  0  0  0  0  0  0999 V2000
    7.6812   -8.7430  -15.7225 C   0  0  0  0  0  0  0  0  0  0  0  0
    9.3264   -9.5355  -15.8315 S   0  0  0  0  0  0  0  0  0  0  0  0
   10.0259   -8.0139  -16.5585 C   0  0  0  0  0  0  0  0  0  0  0  0
   11.2072   -8.3519  -17.4325 C   0  0  0  0  0  0  0  0  0  0  0  0
   11.4975   -7.3452  -18.3942 C   0  0  2  0  0  0  0  0  0  0  0  0
   10.9033   -7.2277  -19.3854 N   0  0  0  0  0  0  0  0  0  0  0  0
   11.4667   -6.7997  -19.9366 C   0  0  0  0  0  0  0  0  0  0  0  0
   12.5239   -6.4234  -19.5272 O   0  0  0  0  0  0  0  0  0  0  0  0
   10.8299   -6.7900  -21.0397 C   0  0  2  0  0  0  0  0  0  0  0  0
   11.6940   -6.3217  -22.0903 C   0  0  0  0  0  0  0  0  0  0  0  0
   11.6157   -5.0739  -22.2519 C   0  0  0  0  0  0  0  0  0  0  0  0
   11.2798   -4.2662  -21.2319 C   0  0  0  0  0  0  0  0  0  0  0  0
   10.7847   -2.9793  -21.8352 N   0  0  0  0  0  0  0  0  0  0  0  0
   10.8974   -3.0445  -23.1630 C   0  0  0  0  0  0  0  0  0  0  0  0
   10.5572   -2.2267  -24.1796 C   0  0  0  0  0  0  0  0  0  0  0  0
   10.8910   -2.5242  -25.5859 C   0  0  0  0  0  0  0  0  0  0  0  0
   11.5747   -3.7267  -25.7966 C   0  0  0  0  0  0  0  0  0  0  0  0
   11.8842   -4.5352  -24.8113 C   0  0  0  0  0  0  0  0  0  0  0  0
   11.5132   -4.3147  -23.5376 C   0  0  0  0  0  0  0  0  0  0  0  0
    9.7423   -6.4651  -21.4405 N   0  0  0  0  0  0  0  0  0  0  0  0
    8.5017   -6.8588  -20.9469 C   0  0  0  0  0  0  0  0  0  0  0  0
    8.2898   -7.4744  -20.0295 O   0  0  0  0  0  0  0  0  0  0  0  0
    7.5535   -6.4455  -21.5551 C   0  0  1  0  0  0  0  0  0  0  0  0
    7.7840   -5.1033  -22.2051 C   0  0  0  0  0  0  0  0  0  0  0  0
    6.6633   -4.1345  -22.2042 C   0  0  0  0  0  0  0  0  0  0  0  0
    5.6430   -4.1403  -21.3652 C   0  0  0  0  0  0  0  0  0  0  0  0
    4.7829   -3.0000  -21.5623 N   0  0  0  0  0  0  0  0  0  0  0  0
    5.3008   -2.2370  -22.5810 C   0  0  0  0  0  0  0  0  0  0  0  0
    4.8845   -1.0713  -23.1304 C   0  0  0  0  0  0  0  0  0  0  0  0
    5.5687   -0.3866  -24.3315 C   0  0  0  0  0  0  0  0  0  0  0  0
    6.7362   -1.1917  -24.7310 C   0  0  0  0  0  0  0  0  0  0  0  0
    7.1717   -2.3317  -24.1961 C   0  0  0  0  0  0  0  0  0  0  0  0
    6.4560   -2.9051  -23.0480 C   0  0  0  0  0  0  0  0  0  0  0  0
    6.7772   -7.3375  -22.0376 N   0  0  0  0  0  0  0  0  0  0  0  0
    6.3995   -8.5931  -21.4132 C   0  0  0  0  0  0  0  0  0  0  0  0
    6.9647   -9.0472  -20.5098 O   0  0  0  0  0  0  0  0  0  0  0  0
    5.3013   -9.2795  -22.0565 C   0  0  2  0  0  0  0  0  0  0  0  0
    5.6794  -10.1785  -23.0396 C   0  0  0  0  0  0  0  0  0  0  0  0
    4.6708  -10.1714  -24.1787 C   0  0  0  0  0  0  0  0  0  0  0  0
    5.3183  -10.7644  -25.3187 C   0  0  0  0  0  0  0  0  0  0  0  0
    5.2941  -10.0782  -26.3626 O   0  0  0  0  0  0  0  0  0  0  0  0
    5.8929  -11.9199  -25.2400 O   0  0  0  0  0  0  0  0  0  0  0  0
    4.0445   -8.7376  -21.5820 N   0  0  0  0  0  0  0  0  0  0  0  0
    3.3326   -8.7703  -20.0951 C   0  0  0  0  0  0  0  0  0  0  0  0
    4.0164   -9.2550  -19.2128 O   0  0  0  0  0  0  0  0  0  0  0  0
    1.9653   -8.2206  -19.8077 C   0  0  1  0  0  0  0  0  0  0  0  0
    1.8012   -7.1541  -20.7071 C   0  0  0  0  0  0  0  0  0  0  0  0
    0.2352   -6.6859  -20.2293 C   0  0  0  0  0  0  0  0  0  0  0  0
   -0.4464   -7.7371  -19.2416 C   0  0  0  0  0  0  0  0  0  0  0  0
    0.4808   -8.6687  -19.0792 N   0  0  0  0  0  0  0  0  0  0  0  0
    0.2531   -9.7933  -18.1486 C   0  0  0  0  0  0  0  0  0  0  0  0
    1.3369  -10.2127  -17.6201 O   0  0  0  0  0  0  0  0  0  0  0  0
   -1.2222  -10.4658  -17.7167 C   0  0  1  0  0  0  0  0  0  0  0  0
   -0.7810  -11.7590  -17.2723 C   0  0  0  0  0  0  0  0  0  0  0  0
    0.0684  -11.8630  -16.0916 C   0  0  0  0  0  0  0  0  0  0  0  0
    0.1814  -13.3875  -15.4693 C   0  0  0  0  0  0  0  0  0  0  0  0
    0.0291  -13.1510  -14.1389 N   0  0  0  0  0  0  0  0  0  0  0  0
   -0.6524  -13.9448  -13.3072 C   0  0  0  0  0  0  0  0  0  0  0  0
   -1.6911  -14.6518  -13.6339 N   0  0  0  0  0  0  0  0  0  0  0  0
   -0.2544  -13.8878  -12.0302 N   0  0  0  0  0  0  0  0  0  0  0  0
   -2.4898  -10.0460  -16.8477 N   0  0  0  0  0  0  0  0  0  0  0  0
   -4.0008  -10.0430  -17.2530 C   0  0  0  0  0  0  0  0  0  0  0  0
   -4.3737  -10.4010  -18.4025 O   0  0  0  0  0  0  0  0  0  0  0  0
   -5.5559   -9.7583  -16.1886 C   0  0  0  0  0  0  0  0  0  0  0  0
   -6.0536   -8.3975  -16.1145 N   0  0  0  0  0  0  0  0  0  0  0  0
   -7.0377   -7.8751  -15.1666 C   0  0  0  0  0  0  0  0  0  0  0  0
   -7.5912   -8.5331  -14.2212 O   0  0  0  0  0  0  0  0  0  0  0  0
   -7.5036   -6.5577  -15.2911 C   0  0  1  0  0  0  0  0  0  0  0  0
   -8.6756   -6.0019  -15.8093 N   0  0  0  0  0  0  0  0  0  0  0  0
   -6.7290   -5.4579  -14.7594 C   0  0  0  0  0  0  0  0  0  0  0  0
   -6.1121   -4.4237  -15.7720 C   0  0  0  0  0  0  0  0  0  0  0  0
   -6.2970   -5.0538  -13.4190 C   0  0  0  0  0  0  0  0  0  0  0  0
   12.5587   -6.5121  -18.7436 C   0  0  0  0  0  0  0  0  0  0  0  0
   13.4046   -7.2081  -19.2800 O   0  0  0  0  0  0  0  0  0  0  0  0
   12.4358   -5.0223  -18.3192 N   0  0  0  0  0  0  0  0  0  0  0  0
   13.1306   -4.2815  -18.4550 C   0  0  2  0  0  0  0  0  0  0  0  0
   14.3430   -3.3959  -18.8538 C   0  0  0  0  0  0  0  0  0  0  0  0
   15.3328   -3.7888  -19.7144 C   0  0  0  0  0  0  0  0  0  0  0  0
   15.6519   -2.7689  -20.4790 O   0  0  0  0  0  0  0  0  0  0  0  0
   15.9873   -4.8492  -19.8152 O   0  0  0  0  0  0  0  0  0  0  0  0
   12.4524   -3.2241  -17.3745 C   0  0  0  0  0  0  0  0  0  0  0  0
   13.1025   -3.0102  -16.3931 O   0  0  0  0  0  0  0  0  0  0  0  0
   11.0652   -2.6826  -17.4670 N   0  0  0  0  0  0  0  0  0  0  0  0
   10.2618   -1.6694  -16.8178 C   0  0  2  0  0  0  0  0  0  0  0  0
    9.3042   -1.6106  -15.6915 C   0  0  0  0  0  0  0  0  0  0  0  0
    9.7118   -1.2778  -14.2550 C   0  0  0  0  0  0  0  0  0  0  0  0
   10.2610   -2.3398  -13.4634 C   0  0  0  0  0  0  0  0  0  0  0  0
   10.6162   -2.1443  -12.1502 C   0  0  0  0  0  0  0  0  0  0  0  0
   10.3724   -0.9231  -11.5365 C   0  0  0  0  0  0  0  0  0  0  0  0
   10.5757   -0.8012  -10.1378 O   0  0  0  0  0  0  0  0  0  0  0  0
    9.9485    0.1243  -12.2530 C   0  0  0  0  0  0  0  0  0  0  0  0
    9.6209   -0.0128  -13.6049 C   0  0  0  0  0  0  0  0  0  0  0  0
    9.9565   -0.6559  -17.5941 C   0  0  0  0  0  0  0  0  0  0  0  0
    9.3543    0.3781  -17.4589 O   0  0  0  0  0  0  0  0  0  0  0  0
   10.2441   -0.9306  -18.7488 N   0  0  0  0  0  0  0  0  0  0  0  0
   10.2995   -0.1063  -19.6851 C   0  0  2  0  0  0  0  0  0  0  0  0
    9.4140    0.1510  -20.8000 C   0  0  0  0  0  0  0  0  0  0  0  0
    8.2624    0.8491  -21.0006 C   0  0  0  0  0  0  0  0  0  0  0  0
    7.3352    1.6796  -20.5327 C   0  0  0  0  0  0  0  0  0  0  0  0
    6.4746    2.2668  -21.3825 N   0  0  0  0  0  0  0  0  0  0  0  0
    7.2150    1.9012  -19.3347 O   0  0  0  0  0  0  0  0  0  0  0  0
   11.4640    0.2796  -19.5837 C   0  0  0  0  0  0  0  0  0  0  0  0
   12.2996    0.0554  -20.3638 O   0  0  0  0  0  0  0  0  0  0  0  0
   11.5346    0.9259  -18.4171 N   0  0  0  0  0  0  0  0  0  0  0  0
   12.4684    1.5015  -17.8831 C   0  0  1  0  0  0  0  0  0  0  0  0
   12.2815    2.8066  -17.7856 C   0  0  0  0  0  0  0  0  0  0  0  0
   11.7588    3.2326  -19.3597 C   0  0  0  0  0  0  0  0  0  0  0  0
   11.2097    4.4381  -19.1442 C   0  0  0  0  0  0  0  0  0  0  0  0
   10.6713    5.0590  -20.1070 C   0  0  0  0  0  0  0  0  0  0  0  0
    9.8203    5.9369  -20.3894 N   0  0  0  0  0  0  0  0  0  0  0  0
   13.5670    0.8772  -17.2699 C   0  0  0  0  0  0  0  0  0  0  0  0
   14.1347   -0.0224  -17.7308 O   0  0  0  0  0  0  0  0  0  0  0  0
   13.7972    1.5074  -16.0187 N   0  0  0  0  0  0  0  0  0  0  0  0
   14.8135    1.4169  -15.4280 C   0  0  2  0  0  0  0  0  0  0  0  0
   15.1769    1.0770  -13.9316 C   0  0  0  0  0  0  0  0  0  0  0  0
   14.1655    0.4703  -13.1144 C   0  0  0  0  0  0  0  0  0  0  0  0
   14.4114    0.1108  -11.4646 C   0  0  0  0  0  0  0  0  0  0  0  0
   13.4657   -0.5530  -11.0867 N   0  0  0  0  0  0  0  0  0  0  0  0
   12.6841   -1.1542  -10.0491 C   0  0  0  0  0  0  0  0  0  0  0  0
   12.7423   -0.8152   -8.8227 N   0  0  0  0  0  0  0  0  0  0  0  0
   11.8122   -2.0575  -10.4076 N   0  0  0  0  0  0  0  0  0  0  0  0
   15.6356    2.2127  -16.2074 C   0  0  0  0  0  0  0  0  0  0  0  0
   16.0173    3.2436  -15.6797 O   0  0  0  0  0  0  0  0  0  0  0  0
   15.7952    1.8642  -17.4508 N   0  0  0  0  0  0  0  0  0  0  0  0
   16.4750    2.6493  -18.4491 C   0  0  2  0  0  0  0  0  0  0  0  0
   17.0066    3.9035  -18.3922 C   0  0  0  0  0  0  0  0  0  0  0  0
   15.9958    4.7778  -17.7867 C   0  0  0  0  0  0  0  0  0  0  0  0
   14.6168    4.8747  -18.1083 C   0  0  0  0  0  0  0  0  0  0  0  0
   13.8128    5.7378  -17.4816 C   0  0  0  0  0  0  0  0  0  0  0  0
   14.3147    6.6625  -16.4886 C   0  0  0  0  0  0  0  0  0  0  0  0
   13.4688    7.6671  -15.9378 O   0  0  0  0  0  0  0  0  0  0  0  0
   15.7128    6.5525  -16.1601 C   0  0  0  0  0  0  0  0  0  0  0  0
   16.4874    5.6667  -16.6796 C   0  0  0  0  0  0  0  0  0  0  0  0
   16.6389    2.1411  -19.7027 C   0  0  0  0  0  0  0  0  0  0  0  0
   17.5405    1.3111  -19.8118 O   0  0  0  0  0  0  0  0  0  0  0  0
   15.8349    2.5072  -20.7483 N   0  0  0  0  0  0  0  0  0  0  0  0
   15.8510    2.0779  -22.0693 C   0  0  0  0  0  0  0  0  0  0  0  0
   14.9737    2.8525  -22.9556 C   0  0  0  0  0  0  0  0  0  0  0  0
   14.9450    4.1006  -22.8494 O   0  0  0  0  0  0  0  0  0  0  0  0
   14.1988    2.1378  -23.6165 O   0  0  0  0  0  0  0  0  0  0  0  0
  1  2  1  0
  2  3  1  0
  3  4  1  0
  5  4  1  6
  5  6  1  0
  6  7  1  0
  7  8  2  0
  7  9  1  0
  9 10  1  6
 10 11  1  0
 11 12  2  0
 12 13  1  0
 13 14  1  0
 14 15  2  0
 15 16  1  0
 16 17  2  0
 17 18  1  0
 18 19  2  0
  9 20  1  0
 20 21  1  0
 21 22  2  0
 21 23  1  0
 23 24  1  1
 24 25  1  0
 25 26  2  0
 26 27  1  0
 27 28  1  0
 28 29  2  0
 29 30  1  0
 30 31  2  0
 31 32  1  0
 32 33  2  0
 23 34  1  0
 34 35  1  0
 35 36  2  0
 35 37  1  0
 37 38  1  6
 38 39  1  0
 39 40  1  0
 40 41  2  0
 40 42  1  0
 37 43  1  0
 43 44  1  0
 44 45  2  0
 46 44  1  1
 46 47  1  0
 47 48  1  0
 48 49  1  0
 49 50  1  0
 50 51  1  0
 51 52  2  0
 51 53  1  0
 53 54  1  6
 54 55  1  0
 55 56  1  0
 56 57  1  0
 57 58  1  0
 58 59  2  0
 58 60  1  0
 53 61  1  0
 61 62  1  0
 62 63  2  0
 62 64  1  0
 64 65  1  0
 65 66  1  0
 66 67  2  0
 66 68  1  0
 68 69  1  1
 68 70  1  0
 70 71  1  0
 70 72  1  0
  5 73  1  0
 73 74  2  0
 73 75  1  0
 75 76  1  0
 76 77  1  6
 77 78  1  0
 78 79  2  0
 78 80  1  0
 76 81  1  0
 81 82  2  0
 81 83  1  0
 83 84  1  0
 84 85  1  1
 85 86  1  0
 86 87  2  0
 87 88  1  0
 88 89  2  0
 89 90  1  0
 89 91  1  0
 91 92  2  0
 84 93  1  0
 93 94  2  0
 93 95  1  0
 95 96  1  0
 96 97  1  1
 97 98  1  0
 98 99  1  0
 99100  1  0
 99101  2  0
 96102  1  0
102103  2  0
102104  1  0
104105  1  0
105106  1  1
106107  1  0
107108  1  0
108109  1  0
109110  1  0
105111  1  0
111112  2  0
111113  1  0
113114  1  0
114115  1  6
115116  1  0
116117  1  0
117118  1  0
118119  1  0
119120  2  0
119121  1  0
114122  1  0
122123  2  0
122124  1  0
124125  1  0
125126  1  1
126127  1  0
127128  2  0
128129  1  0
129130  2  0
130131  1  0
130132  1  0
132133  2  0
125134  1  0
134135  2  0
134136  1  0
136137  1  0
137138  1  0
138139  2  0
138140  1  0
 19 11  1  0
 33 25  1  0
 50 46  1  0
 92 86  1  0
133127  1  0
 19 14  1  0
 33 28  1  0
M  END
$$$$
