
     RDKit          3D

 33 34  0  0  0  0  0  0  0  0999 V2000
    5.7414    5.6707  -17.6278 C   0  0  0  0  0  0  0  0  0  0  0  0
    5.4228    4.6990  -16.6645 C   0  0  2  0  0  0  0  0  0  0  0  0
    4.0871    4.6302  -16.0930 N   0  0  0  0  0  0  0  0  0  0  0  0
    3.3319    3.6450  -15.8599 C   0  0  0  0  0  0  0  0  0  0  0  0
    3.6824    2.5523  -15.8287 O   0  0  0  0  0  0  0  0  0  0  0  0
    1.9382    4.0955  -15.5919 C   0  0  2  0  0  0  0  0  0  0  0  0
    1.0968    3.9001  -16.5789 N   0  0  0  0  0  0  0  0  0  0  0  0
    1.5273    4.7615  -14.3215 C   0  0  0  0  0  0  0  0  0  0  0  0
    1.1629    3.9832  -13.0746 C   0  0  0  0  0  0  0  0  0  0  0  0
    0.0726    3.0628  -12.9106 C   0  0  0  0  0  0  0  0  0  0  0  0
   -0.2153    2.4204  -11.7116 C   0  0  0  0  0  0  0  0  0  0  0  0
    0.5282    2.7575  -10.6112 C   0  0  0  0  0  0  0  0  0  0  0  0
    0.2330    2.1559   -9.3399 O   0  0  0  0  0  0  0  0  0  0  0  0
    1.5506    3.6099  -10.7126 C   0  0  0  0  0  0  0  0  0  0  0  0
    1.8814    4.2511  -11.9599 C   0  0  0  0  0  0  0  0  0  0  0  0
    6.4571    3.9808  -16.0807 C   0  0  0  0  0  0  0  0  0  0  0  0
    6.5582    4.0560  -14.8879 O   0  0  0  0  0  0  0  0  0  0  0  0
    7.2307    3.3727  -16.9947 N   0  0  0  0  0  0  0  0  0  0  0  0
    8.3864    2.6793  -16.6748 C   0  0  0  0  0  0  0  0  0  0  0  0
    8.1212    1.4004  -17.0758 C   0  0  0  0  0  0  0  0  0  0  0  0
    7.7559    1.1390  -18.3087 O   0  0  0  0  0  0  0  0  0  0  0  0
    8.3918    0.5510  -16.1500 N   0  0  0  0  0  0  0  0  0  0  0  0
    8.3711   -0.7600  -16.4033 C   0  0  2  0  0  0  0  0  0  0  0  0
    7.7107   -1.6428  -15.3368 C   0  0  0  0  0  0  0  0  0  0  0  0
    7.8260   -1.3351  -13.8789 C   0  0  0  0  0  0  0  0  0  0  0  0
    7.4845   -0.1207  -13.3125 C   0  0  0  0  0  0  0  0  0  0  0  0
    7.6232    0.0442  -11.8649 C   0  0  0  0  0  0  0  0  0  0  0  0
    7.9676   -0.8776  -11.0151 C   0  0  0  0  0  0  0  0  0  0  0  0
    8.2977   -2.1418  -11.5915 C   0  0  0  0  0  0  0  0  0  0  0  0
    8.2541   -2.3236  -12.9211 C   0  0  0  0  0  0  0  0  0  0  0  0
    9.0743   -1.1115  -17.6352 C   0  0  0  0  0  0  0  0  0  0  0  0
    8.4298   -1.2083  -18.7730 O   0  0  0  0  0  0  0  0  0  0  0  0
   10.4010   -1.2434  -17.6056 O   0  0  0  0  0  0  0  0  0  0  0  0
  2  1  1  1
  2  3  1  0
  3  4  1  0
  4  5  2  0
  4  6  1  0
  6  7  1  1
  6  8  1  0
  8  9  1  0
  9 10  2  0
 10 11  1  0
 11 12  2  0
 12 13  1  0
 12 14  1  0
 14 15  2  0
  2 16  1  0
 16 17  2  0
 16 18  1  0
 18 19  1  0
 19 20  1  0
 20 21  2  0
 20 22  1  0
 22 23  1  0
 23 24  1  6
 24 25  1  0
 25 26  2  0
 26 27  1  0
 27 28  2  0
 28 29  1  0
 29 30  2  0
 23 31  1  0
 31 32  2  0
 31 33  1  0
 15  9  1  0
 30 25  1  0
M  END
$$$$
