
     RDKit          3D

 45 49  0  0  0  0  0  0  0  0999 V2000
    7.7190    2.2920  -13.1739 N   0  0  0  0  0  0  0  0  0  0  0  0
    6.4321    2.5967  -13.0453 C   0  0  1  0  0  0  0  0  0  0  0  0
    5.8901    3.7582  -12.1509 C   0  0  0  0  0  0  0  0  0  0  0  0
    5.4781    3.5238  -10.7396 C   0  0  0  0  0  0  0  0  0  0  0  0
    4.5568    4.4393  -10.3113 C   0  0  0  0  0  0  0  0  0  0  0  0
    4.0240    4.5014   -9.1001 C   0  0  0  0  0  0  0  0  0  0  0  0
    4.3235    3.5556   -8.1069 C   0  0  0  0  0  0  0  0  0  0  0  0
    3.6950    3.5914   -6.7541 O   0  0  0  0  0  0  0  0  0  0  0  0
    5.2238    2.6125   -8.4946 C   0  0  0  0  0  0  0  0  0  0  0  0
    5.8301    2.5172   -9.7529 C   0  0  0  0  0  0  0  0  0  0  0  0
    5.4367    2.0327  -14.1507 C   0  0  0  0  0  0  0  0  0  0  0  0
    5.4049    2.5005  -15.2328 O   0  0  0  0  0  0  0  0  0  0  0  0
    4.7520    0.9756  -13.8309 N   0  0  0  0  0  0  0  0  0  0  0  0
    5.1707   -0.0913  -12.8546 C   0  0  0  0  0  0  0  0  0  0  0  0
    3.9555   -0.8891  -12.6745 C   0  0  0  0  0  0  0  0  0  0  0  0
    2.7759   -0.3274  -13.6026 C   0  0  0  0  0  0  0  0  0  0  0  0
    3.5002    0.6889  -14.3081 C   0  0  2  0  0  0  0  0  0  0  0  0
    3.0331    1.3183  -15.3400 C   0  0  0  0  0  0  0  0  0  0  0  0
    3.3521    0.9059  -16.4242 O   0  0  0  0  0  0  0  0  0  0  0  0
    2.1931    2.4054  -15.0490 N   0  0  0  0  0  0  0  0  0  0  0  0
    1.6444    3.2919  -15.8346 C   0  0  1  0  0  0  0  0  0  0  0  0
    0.9921    4.1501  -15.6621 C   0  0  0  0  0  0  0  0  0  0  0  0
   -0.0027    4.6675  -14.7494 C   0  0  0  0  0  0  0  0  0  0  0  0
   -0.9762    5.4189  -15.1352 C   0  0  0  0  0  0  0  0  0  0  0  0
   -1.6360    6.0296  -14.0267 N   0  0  0  0  0  0  0  0  0  0  0  0
   -1.0934    5.6168  -12.9430 C   0  0  0  0  0  0  0  0  0  0  0  0
   -1.3995    5.9463  -11.6000 C   0  0  0  0  0  0  0  0  0  0  0  0
   -0.7385    5.3534  -10.5004 C   0  0  0  0  0  0  0  0  0  0  0  0
    0.2224    4.4510  -10.8353 C   0  0  0  0  0  0  0  0  0  0  0  0
    0.5967    4.1039  -12.1333 C   0  0  0  0  0  0  0  0  0  0  0  0
   -0.1066    4.7447  -13.2512 C   0  0  0  0  0  0  0  0  0  0  0  0
    2.2590    3.4666  -17.0409 C   0  0  0  0  0  0  0  0  0  0  0  0
    3.2153    4.2097  -17.0874 O   0  0  0  0  0  0  0  0  0  0  0  0
    1.6383    2.7525  -18.1139 N   0  0  0  0  0  0  0  0  0  0  0  0
    2.0849    2.5634  -19.4266 C   0  0  2  0  0  0  0  0  0  0  0  0
    2.0231    3.5715  -20.6861 C   0  0  0  0  0  0  0  0  0  0  0  0
    1.8116    5.0405  -20.5922 C   0  0  0  0  0  0  0  0  0  0  0  0
    2.8643    5.9106  -20.3152 C   0  0  0  0  0  0  0  0  0  0  0  0
    2.6069    7.3195  -20.2909 C   0  0  0  0  0  0  0  0  0  0  0  0
    1.3235    7.8496  -20.5538 C   0  0  0  0  0  0  0  0  0  0  0  0
    0.3003    6.9593  -20.7683 C   0  0  0  0  0  0  0  0  0  0  0  0
    0.5085    5.5774  -20.7580 C   0  0  0  0  0  0  0  0  0  0  0  0
    2.5113    1.3009  -19.6189 C   0  0  0  0  0  0  0  0  0  0  0  0
    3.7099    1.0937  -19.9977 O   0  0  0  0  0  0  0  0  0  0  0  0
    1.6392    0.4077  -19.4903 O   0  0  0  0  0  0  0  0  0  0  0  0
  2  1  1  6
  2  3  1  0
  3  4  1  0
  4  5  2  0
  5  6  1  0
  6  7  2  0
  7  8  1  0
  7  9  1  0
  9 10  2  0
  2 11  1  0
 11 12  2  0
 11 13  1  0
 13 14  1  0
 14 15  1  0
 15 16  1  0
 16 17  1  0
 17 18  1  1
 18 19  2  0
 18 20  1  0
 20 21  1  0
 21 22  1  1
 22 23  1  0
 23 24  2  0
 24 25  1  0
 25 26  1  0
 26 27  2  0
 27 28  1  0
 28 29  2  0
 29 30  1  0
 30 31  2  0
 21 32  1  0
 32 33  2  0
 32 34  1  0
 34 35  1  0
 35 36  1  1
 36 37  1  0
 37 38  2  0
 38 39  1  0
 39 40  2  0
 40 41  1  0
 41 42  2  0
 35 43  1  0
 43 44  2  0
 43 45  1  0
 10  4  1  0
 17 13  1  0
 31 23  1  0
 42 37  1  0
 31 26  1  0
M  END
$$$$
