
     RDKit          3D

 70 71  0  0  0  0  0  0  0  0999 V2000
   -6.8139    8.0828  -15.1947 C   0  0  0  0  0  0  0  0  0  0  0  0
   -5.9816    7.4372  -16.0622 C   0  0  0  0  0  0  0  0  0  0  0  0
   -5.3060    6.3054  -16.0539 C   0  0  2  0  0  0  0  0  0  0  0  0
   -5.3674    5.2237  -14.8711 C   0  0  0  0  0  0  0  0  0  0  0  0
   -4.2926    5.9843  -17.0857 C   0  0  1  0  0  0  0  0  0  0  0  0
   -2.9122    5.6225  -17.0761 N   0  0  0  0  0  0  0  0  0  0  0  0
   -2.2435    4.9094  -16.2227 C   0  0  0  0  0  0  0  0  0  0  0  0
   -2.7214    4.5328  -15.2137 O   0  0  0  0  0  0  0  0  0  0  0  0
   -0.9916    4.6882  -16.6331 C   0  0  2  0  0  0  0  0  0  0  0  0
   -0.8703    3.2128  -16.8997 C   0  0  0  0  0  0  0  0  0  0  0  0
    0.2837    2.7775  -17.3968 C   0  0  0  0  0  0  0  0  0  0  0  0
    0.1048    1.2181  -17.9556 C   0  0  0  0  0  0  0  0  0  0  0  0
    0.7526    1.2114  -19.0299 N   0  0  0  0  0  0  0  0  0  0  0  0
    0.4286    0.3442  -20.0982 C   0  0  0  0  0  0  0  0  0  0  0  0
    1.1635    0.4312  -21.1600 N   0  0  0  0  0  0  0  0  0  0  0  0
   -0.5703   -0.5462  -20.0472 N   0  0  0  0  0  0  0  0  0  0  0  0
    0.1375    5.3246  -16.1773 N   0  0  0  0  0  0  0  0  0  0  0  0
    0.2060    6.5722  -15.9005 C   0  0  0  0  0  0  0  0  0  0  0  0
   -0.6941    7.3180  -16.0930 O   0  0  0  0  0  0  0  0  0  0  0  0
    1.5190    6.8696  -15.1852 C   0  0  2  0  0  0  0  0  0  0  0  0
    2.3373    7.6964  -15.9792 C   0  0  0  0  0  0  0  0  0  0  0  0
    2.3860    9.1751  -15.4968 C   0  0  0  0  0  0  0  0  0  0  0  0
    3.2419   10.1260  -16.4668 C   0  0  0  0  0  0  0  0  0  0  0  0
    4.1994   10.3517  -16.5189 N   0  0  0  0  0  0  0  0  0  0  0  0
    4.9545   11.5079  -16.3142 C   0  0  0  0  0  0  0  0  0  0  0  0
    4.5347   12.5918  -15.6319 N   0  0  0  0  0  0  0  0  0  0  0  0
    6.1489   11.5296  -16.9032 N   0  0  0  0  0  0  0  0  0  0  0  0
    1.7191    6.0546  -14.2349 N   0  0  0  0  0  0  0  0  0  0  0  0
    1.8292    6.2806  -12.7472 C   0  0  0  0  0  0  0  0  0  0  0  0
    1.7877    7.2815  -12.0904 O   0  0  0  0  0  0  0  0  0  0  0  0
    1.9629    5.0736  -12.0441 C   0  0  2  0  0  0  0  0  0  0  0  0
    0.7464    4.7715  -11.3273 C   0  0  0  0  0  0  0  0  0  0  0  0
    0.4782    3.9731  -10.4511 C   0  0  0  0  0  0  0  0  0  0  0  0
   -0.6073    4.4459   -9.4739 C   0  0  0  0  0  0  0  0  0  0  0  0
    0.7928    2.6083  -10.2840 C   0  0  0  0  0  0  0  0  0  0  0  0
    3.2605    4.3432  -12.1329 N   0  0  0  0  0  0  0  0  0  0  0  0
    4.6214    4.7804  -12.4364 C   0  0  0  0  0  0  0  0  0  0  0  0
    4.8380    5.9371  -12.5622 O   0  0  0  0  0  0  0  0  0  0  0  0
    5.8555    3.8762  -12.4556 C   0  0  2  0  0  0  0  0  0  0  0  0
    6.1097    3.1751  -11.2856 C   0  0  0  0  0  0  0  0  0  0  0  0
    5.7822    1.6857  -11.3670 C   0  0  0  0  0  0  0  0  0  0  0  0
    5.0027    1.1874  -10.2872 C   0  0  0  0  0  0  0  0  0  0  0  0
    4.6347   -0.1616  -10.1893 C   0  0  0  0  0  0  0  0  0  0  0  0
    5.0017   -1.1250  -11.2317 C   0  0  0  0  0  0  0  0  0  0  0  0
    5.7483   -0.6742  -12.2671 C   0  0  0  0  0  0  0  0  0  0  0  0
    6.1842    0.7505  -12.3864 C   0  0  0  0  0  0  0  0  0  0  0  0
    7.0897    3.7098  -13.2116 N   0  0  0  0  0  0  0  0  0  0  0  0
    7.5547    4.2906  -14.4892 C   0  0  0  0  0  0  0  0  0  0  0  0
    6.8112    5.0462  -15.0928 O   0  0  0  0  0  0  0  0  0  0  0  0
    9.1344    4.0166  -15.1130 C   0  0  0  0  0  0  0  0  0  0  0  0
    9.1142    3.3396  -16.4375 N   0  0  0  0  0  0  0  0  0  0  0  0
   10.3783    2.9519  -17.0342 C   0  0  0  0  0  0  0  0  0  0  0  0
   11.4692    2.8812  -16.3488 O   0  0  0  0  0  0  0  0  0  0  0  0
   10.4109    2.5726  -18.6141 C   0  0  0  0  0  0  0  0  0  0  0  0
   10.2599    3.6770  -19.4948 N   0  0  0  0  0  0  0  0  0  0  0  0
   10.2702    3.3800  -20.9688 C   0  0  0  0  0  0  0  0  0  0  0  0
   10.5763    2.3497  -21.5911 O   0  0  0  0  0  0  0  0  0  0  0  0
    9.8575    4.3520  -21.8178 C   0  0  2  0  0  0  0  0  0  0  0  0
   10.7491    5.3035  -22.1730 N   0  0  0  0  0  0  0  0  0  0  0  0
    8.4781    4.0106  -21.9643 C   0  0  0  0  0  0  0  0  0  0  0  0
    7.6517    4.9611  -22.6845 C   0  0  0  0  0  0  0  0  0  0  0  0
    6.5942    5.7123  -21.9776 C   0  0  0  0  0  0  0  0  0  0  0  0
    5.6528    6.5147  -22.6657 C   0  0  0  0  0  0  0  0  0  0  0  0
    5.7028    6.6797  -24.0245 C   0  0  0  0  0  0  0  0  0  0  0  0
    4.7720    7.4912  -24.8208 O   0  0  0  0  0  0  0  0  0  0  0  0
    6.7170    6.0400  -24.7045 C   0  0  0  0  0  0  0  0  0  0  0  0
    7.6293    5.2798  -24.1652 C   0  0  0  0  0  0  0  0  0  0  0  0
   -4.7316    5.9369  -18.3986 C   0  0  0  0  0  0  0  0  0  0  0  0
   -4.7950    7.0427  -19.0015 O   0  0  0  0  0  0  0  0  0  0  0  0
   -4.9404    4.7829  -18.8740 O   0  0  0  0  0  0  0  0  0  0  0  0
  1  2  1  0
  2  3  1  0
  3  4  1  1
  3  5  1  0
  5  6  1  6
  6  7  1  0
  7  8  2  0
  7  9  1  0
  9 10  1  1
 10 11  1  0
 11 12  1  0
 12 13  1  0
 13 14  1  0
 14 15  2  0
 14 16  1  0
  9 17  1  0
 17 18  1  0
 18 19  2  0
 18 20  1  0
 20 21  1  6
 21 22  1  0
 22 23  1  0
 23 24  1  0
 24 25  1  0
 25 26  2  0
 25 27  1  0
 20 28  1  0
 28 29  1  0
 29 30  2  0
 29 31  1  0
 31 32  1  1
 32 33  1  0
 33 34  1  0
 33 35  1  0
 31 36  1  0
 36 37  1  0
 37 38  2  0
 37 39  1  0
 39 40  1  1
 40 41  1  0
 41 42  2  0
 42 43  1  0
 43 44  2  0
 44 45  1  0
 45 46  2  0
 39 47  1  0
 47 48  1  0
 48 49  2  0
 48 50  1  0
 50 51  1  0
 51 52  1  0
 52 53  2  0
 52 54  1  0
 54 55  1  0
 55 56  1  0
 56 57  2  0
 56 58  1  0
 58 59  1  6
 58 60  1  0
 60 61  1  0
 61 62  2  0
 62 63  1  0
 63 64  2  0
 64 65  1  0
 64 66  1  0
 66 67  2  0
  5 68  1  0
 68 69  2  0
 68 70  1  0
 46 41  1  0
 67 61  1  0
M  END
$$$$
