
     RDKit          3D

106107  0  0  0  0  0  0  0  0999 V2000
   17.8359   -4.6879  -10.4624 C   0  0  0  0  0  0  0  0  0  0  0  0
   18.1042   -4.6811  -11.7915 C   0  0  0  0  0  0  0  0  0  0  0  0
   17.8071   -5.9158  -12.5551 C   0  0  0  0  0  0  0  0  0  0  0  0
   18.2895   -3.5729  -12.4402 C   0  0  0  0  0  0  0  0  0  0  0  0
   19.3809   -2.5635  -12.7680 C   0  0  2  0  0  0  0  0  0  0  0  0
   20.2126   -1.7753  -11.7561 N   0  0  0  0  0  0  0  0  0  0  0  0
   21.3531   -2.1635  -11.2795 C   0  0  0  0  0  0  0  0  0  0  0  0
   21.6839   -3.2734  -11.5738 O   0  0  0  0  0  0  0  0  0  0  0  0
   22.1788   -1.1976  -10.3374 C   0  0  2  0  0  0  0  0  0  0  0  0
   22.6172   -2.0609   -9.2415 C   0  0  0  0  0  0  0  0  0  0  0  0
   23.6899   -1.4712   -8.5228 C   0  0  0  0  0  0  0  0  0  0  0  0
   24.5524   -2.4022   -7.6977 C   0  0  0  0  0  0  0  0  0  0  0  0
   24.9801   -1.8988   -6.5567 C   0  0  0  0  0  0  0  0  0  0  0  0
   25.6143   -2.8905   -5.5423 N   0  0  0  0  0  0  0  0  0  0  0  0
   22.3517    0.3055  -10.3092 N   0  0  0  0  0  0  0  0  0  0  0  0
   22.6467    1.1689  -11.2932 C   0  0  0  0  0  0  0  0  0  0  0  0
   22.8083    0.8080  -12.3636 O   0  0  0  0  0  0  0  0  0  0  0  0
   22.8519    2.7088  -10.9230 C   0  0  2  0  0  0  0  0  0  0  0  0
   22.3639    3.6380  -11.8347 C   0  0  0  0  0  0  0  0  0  0  0  0
   22.7929    4.9641  -12.1675 C   0  0  0  0  0  0  0  0  0  0  0  0
   22.0099    5.9800  -13.1023 C   0  0  0  0  0  0  0  0  0  0  0  0
   21.5111    6.0821  -14.1310 N   0  0  0  0  0  0  0  0  0  0  0  0
   21.9921    6.9862  -15.0215 C   0  0  0  0  0  0  0  0  0  0  0  0
   21.4065    7.1427  -16.1860 N   0  0  0  0  0  0  0  0  0  0  0  0
   23.0622    7.7070  -14.7592 N   0  0  0  0  0  0  0  0  0  0  0  0
   23.5500    3.1927   -9.7582 N   0  0  0  0  0  0  0  0  0  0  0  0
   23.7427    2.6687   -8.5102 C   0  0  0  0  0  0  0  0  0  0  0  0
   23.3657    1.6476   -8.1354 O   0  0  0  0  0  0  0  0  0  0  0  0
   24.6553    3.4900   -7.5382 C   0  0  1  0  0  0  0  0  0  0  0  0
   25.9651    3.6632   -7.9214 C   0  0  0  0  0  0  0  0  0  0  0  0
   24.0214    4.2491   -6.2963 N   0  0  0  0  0  0  0  0  0  0  0  0
   23.2639    3.8914   -5.2017 C   0  0  0  0  0  0  0  0  0  0  0  0
   22.8242    2.7682   -5.1822 O   0  0  0  0  0  0  0  0  0  0  0  0
   22.9905    4.9751   -4.1741 C   0  0  2  0  0  0  0  0  0  0  0  0
   23.7402    4.5792   -3.0792 C   0  0  0  0  0  0  0  0  0  0  0  0
   24.2914    4.2001   -2.1947 O   0  0  0  0  0  0  0  0  0  0  0  0
   21.9045    5.2581   -4.5775 N   0  0  0  0  0  0  0  0  0  0  0  0
   21.4517    6.6201   -4.5936 C   0  0  0  0  0  0  0  0  0  0  0  0
   21.9743    7.6890   -4.2080 O   0  0  0  0  0  0  0  0  0  0  0  0
   20.3303    6.7300   -5.0930 C   0  0  1  0  0  0  0  0  0  0  0  0
   19.9561    7.2697   -6.2948 C   0  0  0  0  0  0  0  0  0  0  0  0
   20.6961    8.3584   -7.0086 C   0  0  0  0  0  0  0  0  0  0  0  0
   20.3150    9.0965   -8.1889 C   0  0  0  0  0  0  0  0  0  0  0  0
   21.3472    9.9102   -8.7559 C   0  0  0  0  0  0  0  0  0  0  0  0
   21.2783   10.6655   -9.9676 N   0  0  0  0  0  0  0  0  0  0  0  0
   19.7779    5.6152   -4.3956 N   0  0  0  0  0  0  0  0  0  0  0  0
   19.8155    5.5930   -3.0507 C   0  0  0  0  0  0  0  0  0  0  0  0
   20.3465    6.4663   -2.3628 O   0  0  0  0  0  0  0  0  0  0  0  0
   19.2081    4.4986   -2.4415 C   0  0  1  0  0  0  0  0  0  0  0  0
   19.7643    3.3546   -2.0400 C   0  0  0  0  0  0  0  0  0  0  0  0
   19.5132    2.9006   -0.6280 C   0  0  0  0  0  0  0  0  0  0  0  0
   19.9625    2.0734    0.3170 C   0  0  0  0  0  0  0  0  0  0  0  0
   19.6279    2.5717    1.3528 N   0  0  0  0  0  0  0  0  0  0  0  0
   19.6154    3.2513    2.4355 C   0  0  0  0  0  0  0  0  0  0  0  0
   20.6873    3.6654    2.9761 N   0  0  0  0  0  0  0  0  0  0  0  0
   18.4305    3.7511    2.8077 N   0  0  0  0  0  0  0  0  0  0  0  0
   18.0216    4.7095   -2.2150 N   0  0  0  0  0  0  0  0  0  0  0  0
   17.5525    5.8480   -2.1927 C   0  0  0  0  0  0  0  0  0  0  0  0
   18.2282    6.8051   -2.3187 O   0  0  0  0  0  0  0  0  0  0  0  0
   16.1381    5.9454   -1.9883 C   0  0  1  0  0  0  0  0  0  0  0  0
   15.6934    6.1177   -0.7575 C   0  0  0  0  0  0  0  0  0  0  0  0
   15.5146    6.0610   -3.1704 N   0  0  0  0  0  0  0  0  0  0  0  0
   14.9670    5.1282   -3.9031 C   0  0  0  0  0  0  0  0  0  0  0  0
   14.9121    4.0216   -3.7644 O   0  0  0  0  0  0  0  0  0  0  0  0
   14.3245    5.6609   -5.0196 C   0  0  0  0  0  0  0  0  0  0  0  0
   12.9491    6.1635   -4.7143 N   0  0  0  0  0  0  0  0  0  0  0  0
   12.6218    6.2523   -3.7621 C   0  0  0  0  0  0  0  0  0  0  0  0
   13.4146    5.9517   -2.9876 O   0  0  0  0  0  0  0  0  0  0  0  0
   11.2739    6.4746   -3.6613 C   0  0  2  0  0  0  0  0  0  0  0  0
   10.6596    5.9192   -4.6371 N   0  0  0  0  0  0  0  0  0  0  0  0
    9.5876    6.2846   -5.2878 C   0  0  0  0  0  0  0  0  0  0  0  0
    8.8683    7.1929   -4.8646 O   0  0  0  0  0  0  0  0  0  0  0  0
    9.3148    5.4166   -6.3361 C   0  0  1  0  0  0  0  0  0  0  0  0
    8.2945    4.5265   -6.3194 C   0  0  0  0  0  0  0  0  0  0  0  0
    7.2206    4.5758   -5.3099 C   0  0  0  0  0  0  0  0  0  0  0  0
    6.9553    3.4632   -4.6279 C   0  0  0  0  0  0  0  0  0  0  0  0
    5.9516    3.3626   -3.7399 C   0  0  0  0  0  0  0  0  0  0  0  0
    5.1935    4.4753   -3.4886 C   0  0  0  0  0  0  0  0  0  0  0  0
    5.3763    5.6869   -4.0432 C   0  0  0  0  0  0  0  0  0  0  0  0
    6.4330    5.7822   -4.9818 C   0  0  0  0  0  0  0  0  0  0  0  0
    9.5257    6.3328   -7.3819 N   0  0  0  0  0  0  0  0  0  0  0  0
   10.3400    6.2084   -8.3289 C   0  0  0  0  0  0  0  0  0  0  0  0
   11.0682    5.1450   -8.5874 O   0  0  0  0  0  0  0  0  0  0  0  0
   10.6881    7.3653   -9.2883 C   0  0  0  0  0  0  0  0  0  0  0  0
   10.3646    7.7018  -10.5347 N   0  0  0  0  0  0  0  0  0  0  0  0
    9.9806    8.8940  -10.8774 C   0  0  0  0  0  0  0  0  0  0  0  0
    9.9188    9.8061  -10.0865 O   0  0  0  0  0  0  0  0  0  0  0  0
    9.5121    9.0438  -12.4221 C   0  0  0  0  0  0  0  0  0  0  0  0
    8.7059    7.9094  -12.6404 N   0  0  0  0  0  0  0  0  0  0  0  0
    8.8285    7.3885  -13.9912 C   0  0  0  0  0  0  0  0  0  0  0  0
    9.7540    7.4848  -14.7634 O   0  0  0  0  0  0  0  0  0  0  0  0
    7.9140    6.1982  -14.4669 C   0  0  1  0  0  0  0  0  0  0  0  0
    8.6088    4.9955  -14.1646 N   0  0  0  0  0  0  0  0  0  0  0  0
    6.5727    6.2556  -14.9221 C   0  0  0  0  0  0  0  0  0  0  0  0
    6.1445    7.2079  -15.9091 C   0  0  0  0  0  0  0  0  0  0  0  0
    5.5139    6.7500  -17.1171 C   0  0  0  0  0  0  0  0  0  0  0  0
    4.9183    7.5316  -17.9884 C   0  0  0  0  0  0  0  0  0  0  0  0
    5.1083    8.9302  -17.7102 C   0  0  0  0  0  0  0  0  0  0  0  0
    5.7677    9.3617  -16.5831 C   0  0  0  0  0  0  0  0  0  0  0  0
    6.3172    8.5346  -15.7164 C   0  0  0  0  0  0  0  0  0  0  0  0
   10.9010    7.2659   -2.5356 C   0  0  2  0  0  0  0  0  0  0  0  0
   11.0391    6.6935   -1.1835 C   0  0  0  0  0  0  0  0  0  0  0  0
   10.3796    8.4617   -2.7451 O   0  0  0  0  0  0  0  0  0  0  0  0
   19.3087   -1.9253  -14.0523 C   0  0  0  0  0  0  0  0  0  0  0  0
   20.3509   -1.9228  -14.7702 O   0  0  0  0  0  0  0  0  0  0  0  0
   18.1533   -1.3860  -14.3584 O   0  0  0  0  0  0  0  0  0  0  0  0
  1  2  1  0
  2  3  1  0
  2  4  1  0
  5  4  1  1
  5  6  1  0
  6  7  1  0
  7  8  2  0
  7  9  1  0
  9 10  1  1
 10 11  1  0
 11 12  1  0
 12 13  1  0
 13 14  1  0
  9 15  1  0
 15 16  1  0
 16 17  2  0
 16 18  1  0
 18 19  1  6
 19 20  1  0
 20 21  1  0
 21 22  1  0
 22 23  1  0
 23 24  2  0
 23 25  1  0
 18 26  1  0
 26 27  1  0
 27 28  2  0
 27 29  1  0
 29 30  1  1
 29 31  1  0
 31 32  1  0
 32 33  2  0
 32 34  1  0
 34 35  1  1
 35 36  1  0
 34 37  1  0
 37 38  1  0
 38 39  2  0
 38 40  1  0
 40 41  1  1
 41 42  1  0
 42 43  1  0
 43 44  1  0
 44 45  1  0
 40 46  1  0
 46 47  1  0
 47 48  2  0
 47 49  1  0
 49 50  1  6
 50 51  1  0
 51 52  1  0
 52 53  1  0
 53 54  1  0
 54 55  2  0
 54 56  1  0
 49 57  1  0
 57 58  1  0
 58 59  2  0
 58 60  1  0
 60 61  1  6
 60 62  1  0
 62 63  1  0
 63 64  2  0
 63 65  1  0
 65 66  1  0
 66 67  1  0
 67 68  2  0
 67 69  1  0
 69 70  1  1
 70 71  1  0
 71 72  2  0
 71 73  1  0
 73 74  1  6
 74 75  1  0
 75 76  2  0
 76 77  1  0
 77 78  2  0
 78 79  1  0
 79 80  2  0
 73 81  1  0
 81 82  1  0
 82 83  2  0
 82 84  1  0
 84 85  1  0
 85 86  1  0
 86 87  2  0
 86 88  1  0
 88 89  1  0
 89 90  1  0
 90 91  2  0
 90 92  1  0
 92 93  1  1
 92 94  1  0
 94 95  1  0
 95 96  2  0
 96 97  1  0
 97 98  2  0
 98 99  1  0
 99100  2  0
 69101  1  0
101102  1  1
101103  1  0
  5104  1  0
104105  2  0
104106  1  0
 80 75  1  0
100 95  1  0
M  END
$$$$
