
     RDKit          3D

159164  0  0  0  0  0  0  0  0999 V2000
   12.5333   -0.5600  -14.2402 C   0  0  0  0  0  0  0  0  0  0  0  0
   13.4352   -0.3405  -15.8551 S   0  0  0  0  0  0  0  0  0  0  0  0
   15.1627   -0.6701  -15.7698 C   0  0  0  0  0  0  0  0  0  0  0  0
   15.9458   -0.4815  -16.2609 C   0  0  0  0  0  0  0  0  0  0  0  0
   17.1392   -0.2647  -16.8222 C   0  0  2  0  0  0  0  0  0  0  0  0
   18.0411   -1.3061  -16.8764 N   0  0  0  0  0  0  0  0  0  0  0  0
   19.0832   -1.4802  -17.7028 C   0  0  0  0  0  0  0  0  0  0  0  0
   19.4291   -0.5644  -18.4208 O   0  0  0  0  0  0  0  0  0  0  0  0
   19.6942   -2.8664  -17.7584 C   0  0  2  0  0  0  0  0  0  0  0  0
   21.0388   -3.0088  -17.6255 C   0  0  0  0  0  0  0  0  0  0  0  0
   21.6112   -3.9605  -16.8488 O   0  0  0  0  0  0  0  0  0  0  0  0
   18.7535   -3.6519  -18.1922 N   0  0  0  0  0  0  0  0  0  0  0  0
   18.4356   -5.0649  -18.0353 C   0  0  0  0  0  0  0  0  0  0  0  0
   19.1657   -5.8071  -17.4661 O   0  0  0  0  0  0  0  0  0  0  0  0
   17.3028   -5.5558  -18.5402 C   0  0  2  0  0  0  0  0  0  0  0  0
   16.3047   -6.2747  -17.6277 C   0  0  0  0  0  0  0  0  0  0  0  0
   14.8804   -6.0769  -17.5815 C   0  0  0  0  0  0  0  0  0  0  0  0
   13.9409   -5.3390  -18.4381 C   0  0  0  0  0  0  0  0  0  0  0  0
   12.6092   -5.2191  -18.0128 C   0  0  0  0  0  0  0  0  0  0  0  0
   11.9961   -5.8164  -16.8462 C   0  0  0  0  0  0  0  0  0  0  0  0
   10.5894   -5.7080  -16.5751 O   0  0  0  0  0  0  0  0  0  0  0  0
   12.9410   -6.5684  -16.0475 C   0  0  0  0  0  0  0  0  0  0  0  0
   14.2142   -6.6300  -16.4564 C   0  0  0  0  0  0  0  0  0  0  0  0
   17.2761   -5.5992  -19.9252 N   0  0  0  0  0  0  0  0  0  0  0  0
   18.3134   -5.4716  -20.7273 C   0  0  0  0  0  0  0  0  0  0  0  0
   19.5080   -5.3282  -20.3392 O   0  0  0  0  0  0  0  0  0  0  0  0
   18.0306   -5.6280  -22.1887 C   0  0  2  0  0  0  0  0  0  0  0  0
   17.9776   -6.7895  -22.7472 N   0  0  0  0  0  0  0  0  0  0  0  0
   18.4290   -4.4221  -22.8345 C   0  0  0  0  0  0  0  0  0  0  0  0
   18.8919   -3.6479  -23.0734 O   0  0  0  0  0  0  0  0  0  0  0  0
   17.2923    0.9793  -16.7176 C   0  0  0  0  0  0  0  0  0  0  0  0
   16.7148    1.7916  -17.3422 O   0  0  0  0  0  0  0  0  0  0  0  0
   18.2708    1.2645  -15.9772 N   0  0  0  0  0  0  0  0  0  0  0  0
   18.5628    2.3972  -15.9065 C   0  0  2  0  0  0  0  0  0  0  0  0
   19.9878    2.6570  -16.1404 C   0  0  0  0  0  0  0  0  0  0  0  0
   20.4738    1.8083  -17.2353 C   0  0  0  0  0  0  0  0  0  0  0  0
   21.6271    1.5754  -18.0602 C   0  0  0  0  0  0  0  0  0  0  0  0
   22.7558    1.9641  -17.8740 O   0  0  0  0  0  0  0  0  0  0  0  0
   21.3499    0.7373  -19.0391 O   0  0  0  0  0  0  0  0  0  0  0  0
   17.2824    3.2803  -15.5610 C   0  0  0  0  0  0  0  0  0  0  0  0
   16.5121    3.4978  -16.4833 O   0  0  0  0  0  0  0  0  0  0  0  0
   17.0491    3.8346  -14.0892 N   0  0  0  0  0  0  0  0  0  0  0  0
   15.9097    4.5300  -13.7076 C   0  0  2  0  0  0  0  0  0  0  0  0
   16.0624    5.7206  -12.7186 C   0  0  0  0  0  0  0  0  0  0  0  0
   15.9142    6.9491  -13.3487 C   0  0  0  0  0  0  0  0  0  0  0  0
   14.7345    7.6247  -13.6189 C   0  0  0  0  0  0  0  0  0  0  0  0
   15.0417    8.7811  -14.1460 N   0  0  0  0  0  0  0  0  0  0  0  0
   16.3411    8.8391  -14.3241 C   0  0  0  0  0  0  0  0  0  0  0  0
   16.8969    7.7138  -13.9165 N   0  0  0  0  0  0  0  0  0  0  0  0
   15.0438    3.5477  -12.6606 C   0  0  0  0  0  0  0  0  0  0  0  0
   15.3218    3.1983  -11.5057 O   0  0  0  0  0  0  0  0  0  0  0  0
   13.8025    3.0423  -12.9616 N   0  0  0  0  0  0  0  0  0  0  0  0
   12.7922    2.1918  -12.0037 C   0  0  1  0  0  0  0  0  0  0  0  0
   11.3012    2.2334  -12.5622 C   0  0  0  0  0  0  0  0  0  0  0  0
   10.2119    2.3999  -11.4777 C   0  0  0  0  0  0  0  0  0  0  0  0
    9.4984    1.3002  -11.0876 C   0  0  0  0  0  0  0  0  0  0  0  0
    8.5132    1.4620  -10.1534 C   0  0  0  0  0  0  0  0  0  0  0  0
    8.2864    2.6771   -9.6318 C   0  0  0  0  0  0  0  0  0  0  0  0
    9.0630    3.7085   -9.8803 C   0  0  0  0  0  0  0  0  0  0  0  0
   10.0575    3.6422  -10.8472 C   0  0  0  0  0  0  0  0  0  0  0  0
   13.2828    0.9253  -11.8901 C   0  0  0  0  0  0  0  0  0  0  0  0
   12.7814   -0.1833  -11.7928 O   0  0  0  0  0  0  0  0  0  0  0  0
   14.3127    1.0382  -11.8346 N   0  0  0  0  0  0  0  0  0  0  0  0
   15.1522    0.1089  -11.6025 C   0  0  2  0  0  0  0  0  0  0  0  0
   16.3419    0.8976  -11.2949 C   0  0  0  0  0  0  0  0  0  0  0  0
   16.5314    2.1493  -11.9783 C   0  0  0  0  0  0  0  0  0  0  0  0
   17.4119    3.2504  -11.6166 C   0  0  0  0  0  0  0  0  0  0  0  0
   17.5648    4.3465  -12.1350 N   0  0  0  0  0  0  0  0  0  0  0  0
   17.3226    5.7120  -12.0753 C   0  0  0  0  0  0  0  0  0  0  0  0
   17.2633    6.2857  -13.2125 N   0  0  0  0  0  0  0  0  0  0  0  0
   17.1878    6.3348  -10.9916 N   0  0  0  0  0  0  0  0  0  0  0  0
   15.0391   -1.1651  -11.6987 C   0  0  0  0  0  0  0  0  0  0  0  0
   15.5438   -1.7162  -12.6637 O   0  0  0  0  0  0  0  0  0  0  0  0
   14.2890   -1.7618  -10.5336 N   0  0  0  0  0  0  0  0  0  0  0  0
   13.9217   -2.9228  -10.4345 C   0  0  2  0  0  0  0  0  0  0  0  0
   13.1625   -4.1746  -10.5920 C   0  0  0  0  0  0  0  0  0  0  0  0
   11.8381   -4.5082   -9.8262 C   0  0  0  0  0  0  0  0  0  0  0  0
   11.8167   -4.6252   -8.5116 C   0  0  0  0  0  0  0  0  0  0  0  0
   10.4084   -4.7953   -8.1071 N   0  0  0  0  0  0  0  0  0  0  0  0
    9.5976   -4.7639   -9.1972 C   0  0  0  0  0  0  0  0  0  0  0  0
    8.2058   -4.8993   -9.4349 C   0  0  0  0  0  0  0  0  0  0  0  0
    7.6339   -4.9521  -10.7899 C   0  0  0  0  0  0  0  0  0  0  0  0
    8.5351   -4.8070  -11.8509 C   0  0  0  0  0  0  0  0  0  0  0  0
    9.8963   -4.6164  -11.5803 C   0  0  0  0  0  0  0  0  0  0  0  0
   10.4277   -4.6290  -10.3384 C   0  0  0  0  0  0  0  0  0  0  0  0
   14.4705   -2.9239   -9.0469 C   0  0  0  0  0  0  0  0  0  0  0  0
   14.1036   -3.5774   -8.0270 O   0  0  0  0  0  0  0  0  0  0  0  0
   15.3815   -2.1225   -8.9560 N   0  0  0  0  0  0  0  0  0  0  0  0
   16.0402   -2.0251   -7.5212 C   0  0  0  0  0  0  0  0  0  0  0  0
   17.1551   -1.2697   -7.2900 C   0  0  0  0  0  0  0  0  0  0  0  0
   18.2052   -1.5285   -7.9041 O   0  0  0  0  0  0  0  0  0  0  0  0
   16.9198   -0.2825   -6.3659 N   0  0  0  0  0  0  0  0  0  0  0  0
   17.7100    0.2355   -5.7965 C   0  0  1  0  0  0  0  0  0  0  0  0
   18.2761    1.5174   -5.1491 C   0  0  0  0  0  0  0  0  0  0  0  0
   17.5566    2.7220   -5.1924 C   0  0  0  0  0  0  0  0  0  0  0  0
   18.5303    3.8956   -4.6172 C   0  0  0  0  0  0  0  0  0  0  0  0
   18.1634    4.9687   -3.8134 C   0  0  0  0  0  0  0  0  0  0  0  0
   18.6954    6.3052   -3.7896 N   0  0  0  0  0  0  0  0  0  0  0  0
   17.5428   -0.8944   -5.1122 C   0  0  0  0  0  0  0  0  0  0  0  0
   17.0449   -0.8953   -4.0187 O   0  0  0  0  0  0  0  0  0  0  0  0
   17.8905   -1.8765   -5.7343 N   0  0  0  0  0  0  0  0  0  0  0  0
   18.7822   -2.0900   -6.7420 C   0  0  0  0  0  0  0  0  0  0  0  0
   18.9352   -3.6523   -6.7215 C   0  0  0  0  0  0  0  0  0  0  0  0
   18.1767   -4.1694   -5.3579 C   0  0  0  0  0  0  0  0  0  0  0  0
   17.5579   -2.9895   -4.8823 C   0  0  2  0  0  0  0  0  0  0  0  0
   16.3631   -2.9967   -4.4467 C   0  0  0  0  0  0  0  0  0  0  0  0
   15.4013   -2.8716   -5.2173 O   0  0  0  0  0  0  0  0  0  0  0  0
   16.3611   -3.2433   -3.0303 N   0  0  0  0  0  0  0  0  0  0  0  0
   15.3961   -3.1023   -2.4337 C   0  0  2  0  0  0  0  0  0  0  0  0
   16.2225   -2.8336   -1.3470 C   0  0  0  0  0  0  0  0  0  0  0  0
   16.5492   -1.6861   -1.1184 O   0  0  0  0  0  0  0  0  0  0  0  0
   16.6161   -3.9305   -0.8360 N   0  0  0  0  0  0  0  0  0  0  0  0
   17.2631   -3.8758    0.4166 C   0  0  0  0  0  0  0  0  0  0  0  0
   18.6752   -4.0586    0.2557 C   0  0  0  0  0  0  0  0  0  0  0  0
   19.2374   -4.8734    0.8746 O   0  0  0  0  0  0  0  0  0  0  0  0
   19.0203   -3.3581   -0.4593 N   0  0  0  0  0  0  0  0  0  0  0  0
   20.2084   -3.2171   -0.8441 C   0  0  2  0  0  0  0  0  0  0  0  0
   20.4653   -1.8997   -0.8306 C   0  0  0  0  0  0  0  0  0  0  0  0
   19.5343   -1.1483    0.4667 C   0  0  0  0  0  0  0  0  0  0  0  0
   19.8330    0.4357    0.5820 C   0  0  0  0  0  0  0  0  0  0  0  0
   18.7903    1.0059    1.3713 C   0  0  0  0  0  0  0  0  0  0  0  0
   19.0335    2.1012    2.2447 N   0  0  0  0  0  0  0  0  0  0  0  0
   21.0554   -4.2931   -1.6101 C   0  0  0  0  0  0  0  0  0  0  0  0
   21.7596   -4.1095   -2.5166 O   0  0  0  0  0  0  0  0  0  0  0  0
   21.0376   -5.5482   -1.2569 N   0  0  0  0  0  0  0  0  0  0  0  0
   21.9810   -6.5103   -1.7709 C   0  0  2  0  0  0  0  0  0  0  0  0
   21.7093   -7.8320   -2.3022 C   0  0  0  0  0  0  0  0  0  0  0  0
   20.3819   -8.6057   -1.8644 C   0  0  0  0  0  0  0  0  0  0  0  0
   20.0442   -9.8318   -2.7010 C   0  0  0  0  0  0  0  0  0  0  0  0
   19.3470  -11.0012   -2.0479 C   0  0  0  0  0  0  0  0  0  0  0  0
   19.3866  -12.0723   -1.7622 N   0  0  0  0  0  0  0  0  0  0  0  0
   23.2833   -6.1113   -1.1497 C   0  0  0  0  0  0  0  0  0  0  0  0
   24.0218   -6.8266   -0.4657 O   0  0  0  0  0  0  0  0  0  0  0  0
   23.6892   -4.8131   -1.3686 N   0  0  0  0  0  0  0  0  0  0  0  0
   24.8370   -3.9834   -0.8615 C   0  0  1  0  0  0  0  0  0  0  0  0
   24.6546   -2.7652   -1.1373 C   0  0  0  0  0  0  0  0  0  0  0  0
   24.3550   -2.1876    0.0454 C   0  0  0  0  0  0  0  0  0  0  0  0
   24.7561   -1.0318    0.6398 C   0  0  0  0  0  0  0  0  0  0  0  0
   25.4068   -1.1541    1.8362 N   0  0  0  0  0  0  0  0  0  0  0  0
   26.0901   -1.5948    2.4651 C   0  0  0  0  0  0  0  0  0  0  0  0
   26.2910   -2.9092    2.6014 N   0  0  0  0  0  0  0  0  0  0  0  0
   26.7938   -0.8063    3.2949 N   0  0  0  0  0  0  0  0  0  0  0  0
   26.0826   -3.8980   -0.1262 C   0  0  0  0  0  0  0  0  0  0  0  0
   26.0660   -3.4600    0.9544 O   0  0  0  0  0  0  0  0  0  0  0  0
   27.2101   -4.1265   -0.8278 N   0  0  0  0  0  0  0  0  0  0  0  0
   28.5763   -3.9615   -0.2734 C   0  0  2  0  0  0  0  0  0  0  0  0
   29.3395   -2.6800   -0.6408 C   0  0  0  0  0  0  0  0  0  0  0  0
   29.1798   -1.7361    0.4441 C   0  0  0  0  0  0  0  0  0  0  0  0
   29.8337   -0.2427    0.3684 C   0  0  0  0  0  0  0  0  0  0  0  0
   29.2960    0.7054    0.9156 N   0  0  0  0  0  0  0  0  0  0  0  0
   28.9942    1.2284    2.1405 C   0  0  0  0  0  0  0  0  0  0  0  0
   28.7738    2.5628    2.2333 N   0  0  0  0  0  0  0  0  0  0  0  0
   28.5447    0.5241    3.1497 N   0  0  0  0  0  0  0  0  0  0  0  0
   29.3113   -4.8835    0.5441 C   0  0  0  0  0  0  0  0  0  0  0  0
   30.5341   -4.4623    0.9911 O   0  0  0  0  0  0  0  0  0  0  0  0
   28.7520   -5.9533    0.8484 O   0  0  0  0  0  0  0  0  0  0  0  0
   14.1045   -3.2124   -1.6297 C   0  0  0  0  0  0  0  0  0  0  0  0
   13.1334   -4.2606   -1.9686 C   0  0  0  0  0  0  0  0  0  0  0  0
   13.4072   -1.7680   -1.5503 C   0  0  0  0  0  0  0  0  0  0  0  0
  1  2  1  0
  2  3  1  0
  3  4  1  0
  5  4  1  1
  5  6  1  0
  6  7  1  0
  7  8  2  0
  7  9  1  0
  9 10  1  6
 10 11  1  0
  9 12  1  0
 12 13  1  0
 13 14  2  0
 13 15  1  0
 15 16  1  1
 16 17  1  0
 17 18  2  0
 18 19  1  0
 19 20  2  0
 20 21  1  0
 20 22  1  0
 22 23  2  0
 15 24  1  0
 24 25  1  0
 25 26  2  0
 25 27  1  0
 27 28  1  1
 27 29  1  0
 29 30  1  0
  5 31  1  0
 31 32  2  0
 31 33  1  0
 33 34  1  0
 34 35  1  6
 35 36  1  0
 36 37  1  0
 37 38  2  0
 37 39  1  0
 34 40  1  0
 40 41  2  0
 40 42  1  0
 42 43  1  0
 43 44  1  6
 44 45  1  0
 45 46  2  0
 46 47  1  0
 47 48  1  0
 48 49  2  0
 43 50  1  0
 50 51  2  0
 50 52  1  0
 52 53  1  0
 53 54  1  6
 54 55  1  0
 55 56  2  0
 56 57  1  0
 57 58  2  0
 58 59  1  0
 59 60  2  0
 53 61  1  0
 61 62  2  0
 61 63  1  0
 63 64  1  0
 64 65  1  1
 65 66  1  0
 66 67  1  0
 67 68  1  0
 68 69  1  0
 69 70  2  0
 69 71  1  0
 64 72  1  0
 72 73  2  0
 72 74  1  0
 74 75  1  0
 75 76  1  6
 76 77  1  0
 77 78  2  0
 78 79  1  0
 79 80  1  0
 80 81  2  0
 81 82  1  0
 82 83  2  0
 83 84  1  0
 84 85  2  0
 75 86  1  0
 86 87  2  0
 86 88  1  0
 88 89  1  0
 89 90  1  0
 90 91  2  0
 90 92  1  0
 92 93  1  0
 93 94  1  1
 94 95  1  0
 95 96  1  0
 96 97  1  0
 97 98  1  0
 93 99  1  0
 99100  2  0
 99101  1  0
101102  1  0
102103  1  0
103104  1  0
104105  1  0
105106  1  1
106107  2  0
106108  1  0
109108  1  1
109110  1  0
110111  2  0
110112  1  0
112113  1  0
113114  1  0
114115  2  0
114116  1  0
116117  1  0
117118  1  1
118119  1  0
119120  1  0
120121  1  0
121122  1  0
117123  1  0
123124  2  0
123125  1  0
125126  1  0
126127  1  6
127128  1  0
128129  1  0
129130  1  0
130131  1  0
126132  1  0
132133  2  0
132134  1  0
134135  1  0
135136  1  1
136137  1  0
137138  1  0
138139  1  0
139140  1  0
140141  2  0
140142  1  0
135143  1  0
143144  2  0
143145  1  0
145146  1  0
146147  1  1
147148  1  0
148149  1  0
149150  1  0
150151  1  0
151152  2  0
151153  1  0
146154  1  0
154155  2  0
154156  1  0
109157  1  0
157158  1  0
157159  1  0
 23 17  1  0
 49 45  1  0
 60 55  1  0
 85 77  1  0
105101  1  0
 85 80  1  0
M  END
$$$$
