
     RDKit          3D

130134  0  0  0  0  0  0  0  0999 V2000
    6.6438   17.3972  -25.7226 C   0  0  0  0  0  0  0  0  0  0  0  0
    7.3784   16.4896  -26.5641 C   0  0  0  0  0  0  0  0  0  0  0  0
    7.0227   16.4523  -28.0048 C   0  0  0  0  0  0  0  0  0  0  0  0
    8.5026   15.9547  -26.2238 C   0  0  0  0  0  0  0  0  0  0  0  0
    8.6315   14.9024  -25.2189 C   0  0  1  0  0  0  0  0  0  0  0  0
    8.4455   13.5851  -25.7662 N   0  0  0  0  0  0  0  0  0  0  0  0
    8.0635   12.4464  -25.0559 C   0  0  0  0  0  0  0  0  0  0  0  0
    8.0459   12.3760  -23.8262 O   0  0  0  0  0  0  0  0  0  0  0  0
    7.5362   11.0628  -25.8561 C   0  0  0  0  0  0  0  0  0  0  0  0
    8.5185   10.0271  -26.0735 N   0  0  0  0  0  0  0  0  0  0  0  0
    8.6707    9.5090  -27.2669 C   0  0  0  0  0  0  0  0  0  0  0  0
    8.2426   10.0921  -28.2707 O   0  0  0  0  0  0  0  0  0  0  0  0
    9.4631    8.2965  -27.1644 C   0  0  2  0  0  0  0  0  0  0  0  0
   10.8313    8.5264  -27.7324 C   0  0  0  0  0  0  0  0  0  0  0  0
   11.8133    7.4293  -27.5521 C   0  0  0  0  0  0  0  0  0  0  0  0
   12.0440    6.3685  -28.2885 C   0  0  0  0  0  0  0  0  0  0  0  0
   12.8319    8.2365  -26.7431 C   0  0  0  0  0  0  0  0  0  0  0  0
    9.3197    7.2455  -27.0910 N   0  0  0  0  0  0  0  0  0  0  0  0
    8.4573    6.5419  -26.4991 C   0  0  0  0  0  0  0  0  0  0  0  0
    7.4016    6.8039  -25.9770 O   0  0  0  0  0  0  0  0  0  0  0  0
    8.9532    5.3628  -26.5837 C   0  0  1  0  0  0  0  0  0  0  0  0
    8.3353    4.5315  -27.4296 C   0  0  0  0  0  0  0  0  0  0  0  0
    8.2452    5.1883  -28.8934 C   0  0  0  0  0  0  0  0  0  0  0  0
    6.9789    5.3777  -29.4207 C   0  0  0  0  0  0  0  0  0  0  0  0
    6.8052    5.3749  -30.7911 C   0  0  0  0  0  0  0  0  0  0  0  0
    6.9478    5.4898  -31.9453 N   0  0  0  0  0  0  0  0  0  0  0  0
    9.9836    5.5605  -25.8198 N   0  0  0  0  0  0  0  0  0  0  0  0
   10.8023    4.6686  -24.7698 C   0  0  0  0  0  0  0  0  0  0  0  0
   10.7641    3.5019  -24.5106 O   0  0  0  0  0  0  0  0  0  0  0  0
   11.8266    5.2763  -23.9968 C   0  0  1  0  0  0  0  0  0  0  0  0
   12.5664    6.2319  -24.6549 C   0  0  0  0  0  0  0  0  0  0  0  0
   13.0363    7.3468  -24.5107 O   0  0  0  0  0  0  0  0  0  0  0  0
   11.9382    4.8677  -22.4647 N   0  0  0  0  0  0  0  0  0  0  0  0
   11.9739    3.5611  -21.7406 C   0  0  0  0  0  0  0  0  0  0  0  0
   11.8188    2.6517  -22.3812 O   0  0  0  0  0  0  0  0  0  0  0  0
   12.0631    3.3311  -20.1330 C   0  0  1  0  0  0  0  0  0  0  0  0
   13.4908    3.2051  -19.7141 C   0  0  0  0  0  0  0  0  0  0  0  0
   11.0605    3.9745  -19.3104 N   0  0  0  0  0  0  0  0  0  0  0  0
    9.8439    3.4166  -19.0474 C   0  0  0  0  0  0  0  0  0  0  0  0
    9.6069    2.3198  -19.5027 O   0  0  0  0  0  0  0  0  0  0  0  0
    8.9310    4.3354  -18.3712 C   0  0  1  0  0  0  0  0  0  0  0  0
    7.8443    3.7114  -17.4239 C   0  0  0  0  0  0  0  0  0  0  0  0
    6.4597    3.6569  -18.0069 C   0  0  0  0  0  0  0  0  0  0  0  0
    4.9500    3.1999  -17.5889 C   0  0  0  0  0  0  0  0  0  0  0  0
    4.1183    2.4567  -17.3636 N   0  0  0  0  0  0  0  0  0  0  0  0
    3.7150    1.3657  -16.6089 C   0  0  0  0  0  0  0  0  0  0  0  0
    4.4551    0.7537  -15.7947 N   0  0  0  0  0  0  0  0  0  0  0  0
    2.4988    0.9028  -16.8221 N   0  0  0  0  0  0  0  0  0  0  0  0
    9.8033    4.8489  -17.5304 N   0  0  0  0  0  0  0  0  0  0  0  0
   10.2724    5.8148  -17.8975 C   0  0  0  0  0  0  0  0  0  0  0  0
   10.0487    6.5201  -18.9227 O   0  0  0  0  0  0  0  0  0  0  0  0
   11.1352    6.0974  -16.9519 C   0  0  1  0  0  0  0  0  0  0  0  0
   12.4310    5.9782  -17.6205 C   0  0  0  0  0  0  0  0  0  0  0  0
   13.6700    5.9207  -16.9969 C   0  0  0  0  0  0  0  0  0  0  0  0
   14.4490    7.0602  -16.6574 C   0  0  0  0  0  0  0  0  0  0  0  0
   15.7307    6.9070  -16.1369 C   0  0  0  0  0  0  0  0  0  0  0  0
   16.2847    5.6845  -15.9113 C   0  0  0  0  0  0  0  0  0  0  0  0
   17.5996    5.5439  -15.3982 O   0  0  0  0  0  0  0  0  0  0  0  0
   15.5429    4.5833  -16.1297 C   0  0  0  0  0  0  0  0  0  0  0  0
   14.2273    4.6387  -16.6691 C   0  0  0  0  0  0  0  0  0  0  0  0
   10.4212    6.8841  -15.9980 N   0  0  0  0  0  0  0  0  0  0  0  0
    9.0661    6.7020  -15.5627 C   0  0  0  0  0  0  0  0  0  0  0  0
    8.3853    5.9500  -16.1124 O   0  0  0  0  0  0  0  0  0  0  0  0
    8.3959    7.4973  -14.3736 C   0  0  2  0  0  0  0  0  0  0  0  0
    8.5286    8.8839  -14.0729 C   0  0  0  0  0  0  0  0  0  0  0  0
    7.2856    9.2688  -12.9207 C   0  0  0  0  0  0  0  0  0  0  0  0
    7.5076   10.7626  -12.6728 C   0  0  0  0  0  0  0  0  0  0  0  0
    6.2307   11.0911  -11.6297 C   0  0  0  0  0  0  0  0  0  0  0  0
    5.6727   12.3653  -11.8290 N   0  0  0  0  0  0  0  0  0  0  0  0
    7.6204    6.7793  -13.4995 N   0  0  0  0  0  0  0  0  0  0  0  0
    6.8950    5.7674  -13.7601 C   0  0  0  0  0  0  0  0  0  0  0  0
    6.7739    5.4007  -14.8270 O   0  0  0  0  0  0  0  0  0  0  0  0
    6.4005    5.1143  -12.6038 C   0  0  1  0  0  0  0  0  0  0  0  0
    5.0682    4.4614  -12.7375 C   0  0  0  0  0  0  0  0  0  0  0  0
    4.1906    4.6327  -11.3810 C   0  0  0  0  0  0  0  0  0  0  0  0
    2.7274    4.2303  -11.5489 C   0  0  0  0  0  0  0  0  0  0  0  0
    2.0977    3.8798  -10.4639 C   0  0  0  0  0  0  0  0  0  0  0  0
    0.7724    3.8278  -10.0280 N   0  0  0  0  0  0  0  0  0  0  0  0
    7.4535    5.1494  -11.9778 N   0  0  0  0  0  0  0  0  0  0  0  0
    7.8525    5.6986  -10.6178 C   0  0  0  0  0  0  0  0  0  0  0  0
    7.1293    5.9055   -9.6612 O   0  0  0  0  0  0  0  0  0  0  0  0
    9.2602    6.0718  -10.3527 C   0  0  0  0  0  0  0  0  0  0  0  0
   10.4278    5.2950  -10.1712 N   0  0  0  0  0  0  0  0  0  0  0  0
   11.3885    5.5914  -10.8660 C   0  0  0  0  0  0  0  0  0  0  0  0
   11.2392    6.5525  -11.7538 O   0  0  0  0  0  0  0  0  0  0  0  0
   12.6307    4.7788  -10.6892 C   0  0  2  0  0  0  0  0  0  0  0  0
   13.7645    5.8431  -10.4259 C   0  0  0  0  0  0  0  0  0  0  0  0
   14.8494    5.7079   -9.1870 C   0  0  0  0  0  0  0  0  0  0  0  0
   16.2677    5.3120   -9.2250 C   0  0  0  0  0  0  0  0  0  0  0  0
   16.8454    5.2336   -7.9334 N   0  0  0  0  0  0  0  0  0  0  0  0
   15.9099    5.5297   -7.0343 C   0  0  0  0  0  0  0  0  0  0  0  0
   16.1101    5.5250   -5.6333 C   0  0  0  0  0  0  0  0  0  0  0  0
   15.0905    5.8798   -4.8198 C   0  0  0  0  0  0  0  0  0  0  0  0
   13.8994    6.1910   -5.5085 C   0  0  0  0  0  0  0  0  0  0  0  0
   13.7691    6.1826   -6.8622 C   0  0  0  0  0  0  0  0  0  0  0  0
   14.7222    5.8480   -7.6818 C   0  0  0  0  0  0  0  0  0  0  0  0
   11.7978    3.7646  -11.2533 N   0  0  0  0  0  0  0  0  0  0  0  0
   11.4872    2.4030  -10.7067 C   0  0  0  0  0  0  0  0  0  0  0  0
   12.3103    2.1002   -9.7549 O   0  0  0  0  0  0  0  0  0  0  0  0
   10.3531    1.1970  -11.0426 C   0  0  2  0  0  0  0  0  0  0  0  0
   10.6849    0.2386  -11.7802 N   0  0  0  0  0  0  0  0  0  0  0  0
    9.1470    1.4781  -10.7044 C   0  0  0  0  0  0  0  0  0  0  0  0
    8.1823    0.8774   -9.5449 C   0  0  0  0  0  0  0  0  0  0  0  0
    8.3390   -0.1827   -8.6227 C   0  0  0  0  0  0  0  0  0  0  0  0
    7.3437   -0.2205   -7.6811 N   0  0  0  0  0  0  0  0  0  0  0  0
    6.4609    0.7744   -7.9199 C   0  0  0  0  0  0  0  0  0  0  0  0
    5.3018    1.0893   -7.2084 C   0  0  0  0  0  0  0  0  0  0  0  0
    4.4053    2.1327   -7.6658 C   0  0  0  0  0  0  0  0  0  0  0  0
    4.8387    2.7794   -8.7973 C   0  0  0  0  0  0  0  0  0  0  0  0
    6.0087    2.4366   -9.4474 C   0  0  0  0  0  0  0  0  0  0  0  0
    6.8925    1.4310   -9.0517 C   0  0  0  0  0  0  0  0  0  0  0  0
    9.8636   15.0236  -24.7449 C   0  0  0  0  0  0  0  0  0  0  0  0
   10.7035   14.0973  -24.7750 O   0  0  0  0  0  0  0  0  0  0  0  0
   10.0362   16.1600  -24.0073 N   0  0  0  0  0  0  0  0  0  0  0  0
   11.0238   16.6467  -23.5747 C   0  0  2  0  0  0  0  0  0  0  0  0
   11.9080   16.5551  -22.3965 C   0  0  0  0  0  0  0  0  0  0  0  0
   10.5601   17.9246  -23.9834 C   0  0  0  0  0  0  0  0  0  0  0  0
   11.3130   18.7746  -24.4329 O   0  0  0  0  0  0  0  0  0  0  0  0
    9.1686   18.1760  -24.0144 N   0  0  0  0  0  0  0  0  0  0  0  0
    8.3639   19.2015  -24.6506 C   0  0  2  0  0  0  0  0  0  0  0  0
    6.9024   19.4557  -24.2881 C   0  0  0  0  0  0  0  0  0  0  0  0
    6.0441   18.4112  -24.2594 C   0  0  0  0  0  0  0  0  0  0  0  0
    4.5890   18.3628  -23.5270 C   0  0  0  0  0  0  0  0  0  0  0  0
    4.1192   17.3160  -23.3638 N   0  0  0  0  0  0  0  0  0  0  0  0
    2.8976   16.5444  -23.2698 C   0  0  0  0  0  0  0  0  0  0  0  0
    1.6941   16.8794  -23.6474 N   0  0  0  0  0  0  0  0  0  0  0  0
    2.9446   15.2895  -22.7340 N   0  0  0  0  0  0  0  0  0  0  0  0
    8.8313   20.0667  -25.7012 C   0  0  0  0  0  0  0  0  0  0  0  0
    8.7209   19.6571  -26.9373 O   0  0  0  0  0  0  0  0  0  0  0  0
    9.3622   21.2232  -25.3062 O   0  0  0  0  0  0  0  0  0  0  0  0
  1  2  1  0
  2  3  1  0
  2  4  1  0
  5  4  1  1
  5  6  1  0
  6  7  1  0
  7  8  2  0
  7  9  1  0
  9 10  1  0
 10 11  1  0
 11 12  2  0
 11 13  1  0
 13 14  1  6
 14 15  1  0
 15 16  1  0
 15 17  1  0
 13 18  1  0
 18 19  1  0
 19 20  2  0
 19 21  1  0
 21 22  1  1
 22 23  1  0
 23 24  1  0
 24 25  1  0
 25 26  1  0
 21 27  1  0
 27 28  1  0
 28 29  2  0
 28 30  1  0
 30 31  1  6
 31 32  1  0
 30 33  1  0
 33 34  1  0
 34 35  2  0
 34 36  1  0
 36 37  1  6
 36 38  1  0
 38 39  1  0
 39 40  2  0
 39 41  1  0
 41 42  1  6
 42 43  1  0
 43 44  1  0
 44 45  1  0
 45 46  1  0
 46 47  2  0
 46 48  1  0
 41 49  1  0
 49 50  1  0
 50 51  2  0
 50 52  1  0
 52 53  1  1
 53 54  1  0
 54 55  2  0
 55 56  1  0
 56 57  2  0
 57 58  1  0
 57 59  1  0
 59 60  2  0
 52 61  1  0
 61 62  1  0
 62 63  2  0
 62 64  1  0
 64 65  1  1
 65 66  1  0
 66 67  1  0
 67 68  1  0
 68 69  1  0
 64 70  1  0
 70 71  1  0
 71 72  2  0
 71 73  1  0
 73 74  1  1
 74 75  1  0
 75 76  1  0
 76 77  1  0
 77 78  1  0
 73 79  1  0
 79 80  1  0
 80 81  2  0
 80 82  1  0
 82 83  1  0
 83 84  1  0
 84 85  2  0
 84 86  1  0
 86 87  1  6
 87 88  1  0
 88 89  2  0
 89 90  1  0
 90 91  1  0
 91 92  2  0
 92 93  1  0
 93 94  2  0
 94 95  1  0
 95 96  2  0
 86 97  1  0
 97 98  1  0
 98 99  2  0
 98100  1  0
100101  1  1
100102  1  0
102103  1  0
103104  2  0
104105  1  0
105106  1  0
106107  2  0
107108  1  0
108109  2  0
109110  1  0
110111  2  0
  5112  1  0
112113  2  0
112114  1  0
114115  1  0
115116  1  6
115117  1  0
117118  2  0
117119  1  0
119120  1  0
120121  1  1
121122  1  0
122123  1  0
123124  1  0
124125  1  0
125126  2  0
125127  1  0
120128  1  0
128129  2  0
128130  1  0
 60 54  1  0
 96 88  1  0
111103  1  0
 96 91  1  0
111106  1  0
M  END
$$$$
